LAMMPS (29 Oct 2020)
#-------------------------
#
#This script is used to create different concentrations of vacancies in thorium dioxide
#By Ziqiang Wang on 07/03/2023
#
#-------------------------

clear
units                        metal
dimension                        3
boundary                     p p p
atom_style                   full
atom_modify                  map array

read_data                   perfect_relaxed.dat
Reading data file ...
  orthogonal box = (-0.27717828 -3.4472206 -0.27717828) to (27.617178 331.52722 27.617178)
  reading atoms ...
  18000 atoms
  reading velocities ...
  18000 velocities
Finding 1-2 1-3 1-4 neighbors ...
     0 = max # of 1-2 neighbors
     0 = max # of 1-3 neighbors
     0 = max # of 1-4 neighbors
     1 = max # of special neighbors

# randomly create vacancies in the relaxed perfect crystal
variable         vac_ratio       equal    0.01
region           sphere    sphere     13.67 91.4622 13.67 6.5  units box
group            sphere     region  sphere
75 atoms in group sphere
group            oxygen     id 8305
1 atoms in group oxygen
group            thorium    id 8243 4642 4652 4650 4590 4592 8181 4584 4656 4654 8201 4604 4594 4596 4662 8263
16 atoms in group thorium
group            1          subtract sphere thorium
59 atoms in group 1
group            cluster          union    1 oxygen
60 atoms in group cluster
group            Th       type     2
6000 atoms in group Th
group            O        type     1
12000 atoms in group O
group            Th_group   intersect  cluster   Th
20 atoms in group Th_group
group            O_group    intersect  cluster   O
40 atoms in group O_group
delete_atoms     group      cluster
Deleted 60 atoms, new total = 17940
region           sphere     delete
group            sphere     delete
group            oxygen     delete
group            thorium    delete
group            1          delete
group            cluster    delete
group            Th         delete
group            O          delete
group            Th_group   delete
group            O_group    delete

region           sphere    sphere     13.67 197.537 13.67 6.5  units box
group            sphere     region  sphere
75 atoms in group sphere
group            oxygen     id 9445
1 atoms in group oxygen
group            thorium    id 5724 9383 5782 5792 5732 5790 5730 9321 5796 5736 5794 9341 5744 5734 5802 9403
16 atoms in group thorium
group            1          subtract sphere thorium
59 atoms in group 1
group            cluster          union    1 oxygen
60 atoms in group cluster
group            Th       type     2
5980 atoms in group Th
group            O        type     1
11960 atoms in group O
group            Th_group   intersect  cluster   Th
20 atoms in group Th_group
group            O_group    intersect  cluster   O
40 atoms in group O_group
delete_atoms     group      cluster
Deleted 60 atoms, new total = 17880
region           sphere     delete
group            sphere     delete
group            oxygen     delete
group            thorium    delete
group            1          delete
group            cluster    delete
group            Th         delete
group            O          delete
group            Th_group   delete
group            O_group    delete

region           sphere    sphere     13.67 247.784 13.67 6.5  units box
group            sphere     region  sphere
75 atoms in group sphere
group            oxygen     id 9985
1 atoms in group oxygen
group            thorium    id 6264 9923 6322 6332 6272 6330 6270 9861 6336 6276 6334 9881 6274 6342 9943 6284
16 atoms in group thorium
group            1          subtract sphere thorium
59 atoms in group 1
group            cluster          union    1 oxygen
60 atoms in group cluster
group            Th       type     2
5960 atoms in group Th
group            O        type     1
11920 atoms in group O
group            Th_group   intersect  cluster   Th
20 atoms in group Th_group
group            O_group    intersect  cluster   O
40 atoms in group O_group
delete_atoms     group      cluster
Deleted 60 atoms, new total = 17820
region           sphere     delete
group            sphere     delete
group            oxygen     delete
group            thorium    delete
group            1          delete
group            cluster    delete
group            Th         delete
group            O          delete
group            Th_group   delete
group            O_group    delete

set                         type    1      charge   -1.1104
Setting atom values ...
  11880 settings made for charge
set                         type    2      charge    2.2208
Setting atom values ...
  5940 settings made for charge
kspace_style                pppm     1.0e-05
pair_style                  hybrid/overlay    coul/long   11.0  eam/alloy
pair_coeff                  * * coul/long
pair_coeff                  * * eam/alloy CeThUNpPuAmCmO.eam.alloy O Th
neighbor                    2.0  bin
neigh_modify                every  1  delay  0  check  yes

# fully relaxing the defect configuration at 0K
fix                box_relax  all  box/relax aniso 0.0 vmax 0.001
min_style          cg
minimize           1.0e-30 1.0e-30 10000 10000
PPPM initialization ...
  G vector (1/distance) = 0.29913531
  grid = 40 240 40
  stencil order = 5
  estimated absolute RMS force accuracy = 0.00015449248
  estimated relative force accuracy = 1.0728909e-05
  3d grid and FFT values/proc = 18225 7600
  update every 1 steps, delay 0 steps, check yes
Step Temp E_pair E_mol TotEng Press Volume
0            0   -233859.14            0   -233859.14   -423.07786    260641.98
Loop time of 1.77376 on 52 procs for 61 steps with 17820 atoms

Minimization stats:
  Stopping criterion = linesearch alpha is zero
  Energy initial, next-to-last, final =
  Force two-norm initial, final = 365.90727 39.282379
  Force max component initial, final = 280.87954 15.399481
  Final line search alpha, max atom move = 7.7215198e-12 1.1890740e-10
  Iterations, force evaluations = 61 163

unfix              box_relax

# apply the temperature into the system and relaxing at the temperature of interest
reset_atom_ids
PPPM initialization ...
  G vector (1/distance) = 0.29912008
  grid = 40 240 40
  stencil order = 5
  estimated absolute RMS force accuracy = 0.00015460023
  estimated relative force accuracy = 1.0736392e-05
  3d grid and FFT values/proc = 18225 7600
Finding 1-2 1-3 1-4 neighbors ...
     0 = max # of 1-2 neighbors
     0 = max # of 1-3 neighbors
     0 = max # of 1-4 neighbors
     1 = max # of special neighbors
variable                    temp      equal    600
velocity                    all  create   600  4542  dist  gaussian  rot  yes  mom  yes
fix                         npt  all  npt  temp  600  600  $(100*dt) aniso  0.0  0.0  $(1000*dt)
fix                         npt  all  npt  temp  600  600  0.10000000000000000555 aniso  0.0  0.0  $(1000*dt)
fix                         npt  all  npt  temp  600  600  0.10000000000000000555 aniso  0.0  0.0  1

thermo                      10000
thermo_style                custom   step dt time atoms temp pe ke press vol

shell                       mkdir vac_0.01_600K
dump                        1  all  custom  10000  ./vac_0.01_600K/dump_relax.atom.* id type q x y z
dump_modify                 1  element  O  Th

run                         100000
PPPM initialization ...
  G vector (1/distance) = 0.29912008
  grid = 40 240 40
  stencil order = 5
  estimated absolute RMS force accuracy = 0.00015460023
  estimated relative force accuracy = 1.0736392e-05
  3d grid and FFT values/proc = 18225 7600
Step Dt Time Atoms Temp PotEng KinEng Press Volume
61        0.001            0    17820          600   -234153.77    1381.9719    5572.3925    260900.23
Averages over the last 6 of 12 rows, steps 60000 to 100061:
Dt Atoms Temp PotEng KinEng Press Volume
0.001 17820 599.003 -233003 1379.68 -347.207 264930
Loop time of 807.599 on 52 procs for 100000 steps with 17820 atoms

shell                       mkdir thermal_condu
write_data                  thermal_condu/vac_0.01_relaxed.dat
System init for write_data ...
PPPM initialization ...
  G vector (1/distance) = 0.29882895
  grid = 40 240 40
  stencil order = 5
  estimated absolute RMS force accuracy = 0.00015694093
  estimated relative force accuracy = 1.0898945e-05
  3d grid and FFT values/proc = 18225 7600
