LAMMPS (29 Oct 2020)
#---------------------------------------
#
# This script is used to calculate the thermal conuctivity of UO2 using Muller-Plathe method
# By Ziqiang Wang on 03/18/2022 on Jilin university
#
#---------------------------------------

variable     Nevery    equal   50
variable     T         equal   1500

clear
units          metal
boundary       p p p
atom_style     full

read_data antisite_0.01_relaxed.dat
Reading data file ...
  orthogonal box = (-0.53158807 -6.3566461 -0.54220807) to (27.871588 334.43665 27.882208)
  reading atoms ...
  18000 atoms
  reading velocities ...
  18000 velocities
Finding 1-2 1-3 1-4 neighbors ...
     0 = max # of 1-2 neighbors
     0 = max # of 1-3 neighbors
     0 = max # of 1-4 neighbors
     1 = max # of special neighbors

set           type     1    charge     -1.1104
Setting atom values ...
  12000 settings made for charge
set           type     2    charge      2.2208
Setting atom values ...
  6000 settings made for charge

kspace_style    pppm   1.0e-05
pair_style      hybrid/overlay  coul/long  11.0  eam/alloy
pair_coeff      * * coul/long
pair_coeff      * * eam/alloy CeThUNpPuAmCmO.eam.alloy O Th
newton          on
neighbor        0.3 bin
neigh_modify    delay 0 check yes every 1

#The first equilation
velocity        all create $T 10003 mom yes rot yes dist gaussian
velocity        all create 1500 10003 mom yes rot yes dist gaussian
fix             nvt  all  nvt  temp  $T $T  0.1
fix             nvt  all  nvt  temp  1500 $T  0.1
fix             nvt  all  nvt  temp  1500 1500  0.1

run             100000
PPPM initialization ...
  G vector (1/distance) = 0.29814859
  grid = 40 240 40
  stencil order = 5
  estimated absolute RMS force accuracy = 0.00016334751
  estimated relative force accuracy = 1.1343857e-05
  3d grid and FFT values/proc = 15000 7600
  update every 1 steps, delay 0 steps, check yes
Step Temp E_pair E_mol TotEng Press
0         1500    -232280.6            0   -228790.77     1220.399
Loop time of 689.661 on 52 procs for 100000 steps with 18000 atoms

unfix           nvt
reset_timestep  0

# the second run
fix             1 all nve

group           oxygen type 1
12000 atoms in group oxygen
fix             2 oxygen thermal/conductivity 50 y 20

compute         ke all ke/atom
variable        temp atom c_ke/1.5
compute         layers all chunk/atom bin/1d y lower 0.05 units reduced
fix             3      all ave/chunk  2000 50 100000 layers v_temp file profile_1500K.mp

variable        Tdiff    equal     f_3[11][3]-f_3[1][3]
variable        deltaT   equal     v_Tdiff*1.5/0.0001292

timestep        0.001
thermo_style    custom step f_2 temp v_Tdiff v_deltaT
thermo          100000

run             1000000
PPPM initialization ...
  G vector (1/distance) = 0.29814859
  grid = 40 240 40
  stencil order = 5
  estimated absolute RMS force accuracy = 0.00016334751
  estimated relative force accuracy = 1.1343857e-05
  3d grid and FFT values/proc = 15000 7600
Step f_2 Temp v_Tdiff v_deltaT
0            0    1505.6359            0            0
Averages over the last 6 of 11 rows, steps 500000 to 1000000:
f_2 Temp v_Tdiff v_deltaT
10764.8 1503.19 0.0928389 1077.85
Loop time of 6827.24 on 52 procs for 1000000 steps with 18000 atoms
