LAMMPS (29 Oct 2020)
#-------------------------
#
#This script is used to create different concentrations of vacancies in thorium dioxide
#By Ziqiang Wang on 07/03/2023
#
#-------------------------

clear
units                        metal
dimension                        3
boundary                     p p p
atom_style                   full
atom_modify                  map array

read_data                   perfect_relaxed.dat
Reading data file ...
  orthogonal box = (-0.27717828 -3.4472206 -0.27717828) to (27.617178 331.52722 27.617178)
  reading atoms ...
  18000 atoms
  reading velocities ...
  18000 velocities
Finding 1-2 1-3 1-4 neighbors ...
     0 = max # of 1-2 neighbors
     0 = max # of 1-3 neighbors
     0 = max # of 1-4 neighbors
     1 = max # of special neighbors

# randomly create vacancies in the relaxed perfect crystal
variable         vac_ratio       equal    0.02
region           sphere    sphere     13.67 52.3819 13.67 7.0  units box
group            sphere     region  sphere
99 atoms in group sphere
group            oxygen     id 7890 7846 7788 7894
4 atoms in group oxygen
group            thorium    id 11365 11356 11416 11485 7815 11377 7767 7840 11380 11440 11497 7887 7839
13 atoms in group thorium
group            1          subtract sphere thorium
86 atoms in group 1
group            cluster          union    1 oxygen
90 atoms in group cluster
group            Th       type     2
6000 atoms in group Th
group            O        type     1
12000 atoms in group O
group            Th_group   intersect  cluster   Th
30 atoms in group Th_group
group            O_group    intersect  cluster   O
60 atoms in group O_group
delete_atoms     group      cluster
Deleted 90 atoms, new total = 17910
region           sphere     delete
group            sphere     delete
group            oxygen     delete
group            thorium    delete
group            1          delete
group            cluster    delete
group            Th         delete
group            O          delete
group            Th_group   delete
group            O_group    delete

region           sphere    sphere     13.67 119.377 13.67 7.0  units box
group            sphere     region  sphere
99 atoms in group sphere
group            oxygen     id 8610 8566 8508 8614
4 atoms in group oxygen
group            thorium    id 12085 12076 12205 12136 8607 8535 8560 12097 12100 12217 12160 8487 8559
13 atoms in group thorium
group            1          subtract sphere thorium
86 atoms in group 1
group            cluster          union    1 oxygen
90 atoms in group cluster
group            Th       type     2
5970 atoms in group Th
group            O        type     1
11940 atoms in group O
group            Th_group   intersect  cluster   Th
30 atoms in group Th_group
group            O_group    intersect  cluster   O
60 atoms in group O_group
delete_atoms     group      cluster
Deleted 90 atoms, new total = 17820
region           sphere     delete
group            sphere     delete
group            oxygen     delete
group            thorium    delete
group            1          delete
group            cluster    delete
group            Th         delete
group            O          delete
group            Th_group   delete
group            O_group    delete

region           sphere    sphere     13.67 214.286 13.67 7.0  units box
group            sphere     region  sphere
99 atoms in group sphere
group            oxygen     id 9630 9586 9528 9634
4 atoms in group oxygen
group            thorium    id 13105 13096 13156 13225 9555 9627 9507 9580 13117 13120 13180 13237 9579
13 atoms in group thorium
group            1          subtract sphere thorium
86 atoms in group 1
group            cluster          union    1 oxygen
90 atoms in group cluster
group            Th       type     2
5940 atoms in group Th
group            O        type     1
11880 atoms in group O
group            Th_group   intersect  cluster   Th
30 atoms in group Th_group
group            O_group    intersect  cluster   O
60 atoms in group O_group
delete_atoms     group      cluster
Deleted 90 atoms, new total = 17730
region           sphere     delete
group            sphere     delete
group            oxygen     delete
group            thorium    delete
group            1          delete
group            cluster    delete
group            Th         delete
group            O          delete
group            Th_group   delete
group            O_group    delete

region           sphere    sphere     13.67 275.698 13.67 7.0  units box
group            sphere     region  sphere
99 atoms in group sphere
group            oxygen     id 10290 10246 10188 10294
4 atoms in group oxygen
group            thorium    id 13765 13756 13816 10167 10215 13885 10240 13777 13780 13840 10239 13897 10287
13 atoms in group thorium
group            1          subtract sphere thorium
86 atoms in group 1
group            cluster          union    1 oxygen
90 atoms in group cluster
group            Th       type     2
5910 atoms in group Th
group            O        type     1
11820 atoms in group O
group            Th_group   intersect  cluster   Th
30 atoms in group Th_group
group            O_group    intersect  cluster   O
60 atoms in group O_group
delete_atoms     group      cluster
Deleted 90 atoms, new total = 17640
region           sphere     delete
group            sphere     delete
group            oxygen     delete
group            thorium    delete
group            1          delete
group            cluster    delete
group            Th         delete
group            O          delete
group            Th_group   delete
group            O_group    delete

set                         type    1      charge   -1.1104
Setting atom values ...
  11760 settings made for charge
set                         type    2      charge    2.2208
Setting atom values ...
  5880 settings made for charge
kspace_style                pppm     1.0e-05
pair_style                  hybrid/overlay    coul/long   11.0  eam/alloy
pair_coeff                  * * coul/long
pair_coeff                  * * eam/alloy CeThUNpPuAmCmO.eam.alloy O Th
neighbor                    2.0  bin
neigh_modify                every  1  delay  0  check  yes

# fully relaxing the defect configuration at 0K
#fix                box_relax  all  box/relax aniso 0.0 vmax 0.001
min_style          cg
minimize           1.0e-30 1.0e-30 10000 10000
PPPM initialization ...
  G vector (1/distance) = 0.29912164
  grid = 40 240 40
  stencil order = 5
  estimated absolute RMS force accuracy = 0.00015376724
  estimated relative force accuracy = 1.0678544e-05
  3d grid and FFT values/proc = 18225 7600
  update every 1 steps, delay 0 steps, check yes
Step Temp E_pair E_mol TotEng Press
0            0   -230862.45            0   -230862.45   -926.62736
Loop time of 4.11219 on 52 procs for 220 steps with 17640 atoms

Minimization stats:
  Stopping criterion = linesearch alpha is zero
  Energy initial, next-to-last, final =
  Force two-norm initial, final = 180.70645 0.021086391
  Force max component initial, final = 13.194848 0.0028413325
  Final line search alpha, max atom move = 1.5258789e-05 4.3355293e-08
  Iterations, force evaluations = 220 456

#unfix              box_relax

# apply the temperature into the system and relaxing at the temperature of interest
reset_atom_ids
PPPM initialization ...
  G vector (1/distance) = 0.29912164
  grid = 40 240 40
  stencil order = 5
  estimated absolute RMS force accuracy = 0.00015376724
  estimated relative force accuracy = 1.0678544e-05
  3d grid and FFT values/proc = 18225 7600
Finding 1-2 1-3 1-4 neighbors ...
     0 = max # of 1-2 neighbors
     0 = max # of 1-3 neighbors
     0 = max # of 1-4 neighbors
     1 = max # of special neighbors
variable                    temp      equal    1500
velocity                    all  create   1500  4542  dist  gaussian  rot  yes  mom  yes
fix                         npt  all  npt  temp  1500  1500  $(100*dt) aniso  0.0  0.0  $(1000*dt)
fix                         npt  all  npt  temp  1500  1500  0.10000000000000000555 aniso  0.0  0.0  $(1000*dt)
fix                         npt  all  npt  temp  1500  1500  0.10000000000000000555 aniso  0.0  0.0  1

thermo                      10000
thermo_style                custom   step dt time atoms temp pe ke press vol

shell                       mkdir vac_0.02_1500K
dump                        1  all  custom  10000  ./vac_0.02_1500K/dump_relax.atom.* id type q x y z
dump_modify                 1  element  O  Th

run                         100000
PPPM initialization ...
  G vector (1/distance) = 0.29912164
  grid = 40 240 40
  stencil order = 5
  estimated absolute RMS force accuracy = 0.00015376724
  estimated relative force accuracy = 1.0678544e-05
  3d grid and FFT values/proc = 18225 7600
Step Dt Time Atoms Temp PotEng KinEng Press Volume
220        0.001            0    17640         1500   -231783.89    3420.0295    15071.352    260641.98
Averages over the last 6 of 12 rows, steps 60000 to 100220:
Dt Atoms Temp PotEng KinEng Press Volume
0.001 17640 1504.61 -228156 3430.55 629.017 272224
Loop time of 831.565 on 52 procs for 100000 steps with 17640 atoms

shell                       mkdir thermal_condu
write_data                  thermal_condu/vac_0.02_relaxed.dat
System init for write_data ...
PPPM initialization ...
  G vector (1/distance) = 0.2983189
  grid = 40 240 40
  stencil order = 5
  estimated absolute RMS force accuracy = 0.00016022789
  estimated relative force accuracy = 1.1127211e-05
  3d grid and FFT values/proc = 18225 7600
