LAMMPS (29 Oct 2020)
#-------------------------
#
#This script is used to create different concentrations of vacancies in thorium dioxide
#By Ziqiang Wang on 07/03/2023
#
#-------------------------

clear
units                        metal
dimension                        3
boundary                     p p p
atom_style                   full
atom_modify                  map array

read_data                   perfect_relaxed.dat
Reading data file ...
  orthogonal box = (-0.27717828 -3.4472206 -0.27717828) to (27.617178 331.52722 27.617178)
  reading atoms ...
  18000 atoms
  reading velocities ...
  18000 velocities
Finding 1-2 1-3 1-4 neighbors ...
     0 = max # of 1-2 neighbors
     0 = max # of 1-3 neighbors
     0 = max # of 1-4 neighbors
     1 = max # of special neighbors

# randomly create vacancies in the relaxed perfect crystal
variable                   vac_ratio    equal  0.02
group                      Th_delete    id  17547  3145  5857  2259  2641 17042 10322 10321 15675  1285 12376 12375                                              4369  4360  3338  6997 17740 14150  2930  2991  3676  3733 11125 11056                                              16131 16130 16021 15962  8078  8067  8943 12544 16576 16574  2306  2367                                               4525   926  6829  6772 16286 16287 14737 14727 16741 16742 14032 14029                                              17968 17965 13791 13792  9698 13300  7096  7094  5846  9505 16492 16441                                               8438  8487 17726 17715 16407 16417 11752 11751 14329 14260  1705  1636                                               5749  5750 11308 11318  6615 10213   556   613  9904  9973  4096  4155                                              13621  9962 17294 17353  3878  3877  9207 12805 13022 13072  4288  4285                                               7192  7191  1311  1310 17162 17164  1323  1262 15303 15254 10708 10717                                               1189 15590  9376  9374 10633 10635  3397  3340  3279  3278  4502  4503
120 atoms in group Th_delete

group                       O_delete    id  17491 17492 17484 17542  2196  2204  2203  2207 16988 17046 17045 17047                                              10325 10326  6668  6726 15619 15620 15624 15632  8778  8780 12319 12320                                                708   716   762   764  3333  3334  3336  3344 14142 14144 14145 14146                                               2925  2926  2935  2936    78    80    72   130  7464  7472  7458  7460                                              16075 16076 16125 16126 12368 12426 15965 15966  8073  8074  8011  8012                                               8887  8888  8946  8948 12978 12980 16569 16570  2301  2302  2311  2312                                                864   872   921   922  3168  3176  3174  3178 16281 16282 16231 16232                                              11076 11084 14671 14672 13088 13146 16745 16746 10434 10436 10368 10376                                              14370 14372 14304 14312 13735 13736 10194 10196  9693  9694  9702  9704                                               3498  3500  7089  7090  5841  5842  5844  5852 12894 12896 12840 12898                                               8433  8434  8431  8432 17721 17722 17659 17660 16351 16352 12756 12764                                               8154  8156 11695 11696 10668 10676 10662 10664 16044 16052 16038 16040                                               2088  2096  5745  5746  7710  7712 11313 11314  6559  6560  6552  6610                                              14958 14960 14952 15010  6306  6308  6312  6320   498   500  4099  4100                                               9968 10026  9965  9966 17289 17290 13692 13700  3873  3874   216   224                                               9151  9152  9144  9202 13077 13078  9474  9476   690   692   624   632                                               3594  3596  7135  7136  1255  1256  1305  1306 17165 17166 13566 13568                                               1267  1268  1265  1266 15247 15248 15249 15250  7110  7112  7056  7064                                              15528 15536 15585 15586  5778  5780  9369  9370  6972  6980 10579 10580                                              17736 17744 17742 17746  3223  3224  3273  3274  4505  4506  4447  4448
240 atoms in group O_delete

group                       delete      union   Th_delete  O_delete
360 atoms in group delete
delete_atoms                group       delete
Deleted 360 atoms, new total = 17640

set                         type    1      charge   -1.1104
Setting atom values ...
  11760 settings made for charge
set                         type    2      charge    2.2208
Setting atom values ...
  5880 settings made for charge
kspace_style                pppm     1.0e-05
pair_style                  hybrid/overlay    coul/long   11.0  eam/alloy
pair_coeff                  * * coul/long
pair_coeff                  * * eam/alloy CeThUNpPuAmCmO.eam.alloy O Th
neighbor                    2.0  bin
neigh_modify                every  1  delay  0  check  yes

# fully relaxing the defect configuration at 0K
fix                box_relax  all  box/relax aniso 0.0 vmax 0.001
min_style          cg
minimize           1.0e-30 1.0e-30 10000 10000
PPPM initialization ...
  G vector (1/distance) = 0.29912164
  grid = 40 240 40
  stencil order = 5
  estimated absolute RMS force accuracy = 0.00015376724
  estimated relative force accuracy = 1.0678544e-05
  3d grid and FFT values/proc = 18225 7600
  update every 1 steps, delay 0 steps, check yes
Step Temp E_pair E_mol TotEng Press Volume
0            0   -230541.87            0   -230541.87   -4689.2733    260641.98
Loop time of 3.7285 on 52 procs for 210 steps with 17640 atoms

Minimization stats:
  Stopping criterion = linesearch alpha is zero
  Energy initial, next-to-last, final =
  Force two-norm initial, final = 1350.4475 8.1407119
  Force max component initial, final = 910.88202 3.1602071
  Final line search alpha, max atom move = 1.3980703e-10 4.4181916e-10
  Iterations, force evaluations = 210 334

unfix              box_relax

# apply the temperature into the system and relaxing at the temperature of interest
reset_atom_ids
PPPM initialization ...
  G vector (1/distance) = 0.29907141
  grid = 40 240 40
  stencil order = 5
  estimated absolute RMS force accuracy = 0.00015414168
  estimated relative force accuracy = 1.0704547e-05
  3d grid and FFT values/proc = 18225 7600
Finding 1-2 1-3 1-4 neighbors ...
     0 = max # of 1-2 neighbors
     0 = max # of 1-3 neighbors
     0 = max # of 1-4 neighbors
     1 = max # of special neighbors
variable                    temp      equal    300
velocity                    all  create   300  4542  dist  gaussian  rot  yes  mom  yes
fix                         npt  all  npt  temp  300  300  $(100*dt) aniso  0.0  0.0  $(1000*dt)
fix                         npt  all  npt  temp  300  300  0.10000000000000000555 aniso  0.0  0.0  $(1000*dt)
fix                         npt  all  npt  temp  300  300  0.10000000000000000555 aniso  0.0  0.0  1

thermo                      20000
thermo_style                custom   step dt time atoms temp pe ke press vol

shell                       mkdir vac_0.02_300K
dump                        1  all  custom  20000  ./vac_0.02_300K/dump_relax.atom.* id type q x y z
dump_modify                 1  element  O  Th

run                         100000
PPPM initialization ...
  G vector (1/distance) = 0.29907141
  grid = 40 240 40
  stencil order = 5
  estimated absolute RMS force accuracy = 0.00015414168
  estimated relative force accuracy = 1.0704547e-05
  3d grid and FFT values/proc = 18225 7600
Step Dt Time Atoms Temp PotEng KinEng Press Volume
210        0.001            0    17640          300   -231298.48    684.00591    2813.2372    261436.92
Loop time of 859.708 on 52 procs for 100000 steps with 17640 atoms

shell                       mkdir thermal_condu
write_data                  thermal_condu/vac_0.02_relaxed.dat
System init for write_data ...
PPPM initialization ...
  G vector (1/distance) = 0.29892348
  grid = 40 240 40
  stencil order = 5
  estimated absolute RMS force accuracy = 0.0001553339
  estimated relative force accuracy = 1.0787343e-05
  3d grid and FFT values/proc = 18225 7600
