LAMMPS (29 Oct 2020)
#-------------------------
#
#This script is used to create different concentrations of vacancies in thorium dioxide
#By Ziqiang Wang on 07/03/2023
#
#-------------------------

clear
units                        metal
dimension                        3
boundary                     p p p
atom_style                   full
atom_modify                  map array

read_data                   perfect_relaxed.dat
Reading data file ...
  orthogonal box = (-0.27717828 -3.4472206 -0.27717828) to (27.617178 331.52722 27.617178)
  reading atoms ...
  18000 atoms
  reading velocities ...
  18000 velocities
Finding 1-2 1-3 1-4 neighbors ...
     0 = max # of 1-2 neighbors
     0 = max # of 1-3 neighbors
     0 = max # of 1-4 neighbors
     1 = max # of special neighbors

set                         type    1      charge   -1.1104
Setting atom values ...
  12000 settings made for charge
set                         type    2      charge    2.2208
Setting atom values ...
  6000 settings made for charge

kspace_style                pppm     1.0e-05
pair_style                  hybrid/overlay    coul/long   11.0  eam/alloy
pair_coeff                  * * coul/long
pair_coeff                  * * eam/alloy CeThUNpPuAmCmO.eam.alloy O Th
neighbor                    2.0  bin
neigh_modify                every  1  delay  0  check  yes

# randomly create vacancies in the relaxed perfect crystal
variable         vac_ratio       equal    0.005
region           sphere_1    sphere     13.67 80.2964 13.67 5.0  units box
group            sphere_1     region  sphere_1
45 atoms in group sphere_1
group            oxygen_1     id 8070 8132
2 atoms in group oxygen_1
group            thorium_1    id 11727 8067
2 atoms in group thorium_1
group            1          subtract sphere_1 oxygen_1
43 atoms in group 1
group            2          union    1 thorium_1
45 atoms in group 2
delete_atoms     group        2
Deleted 45 atoms, new total = 17955

region           sphere_2     sphere  13.67 250.575 16.4594 5.0  units box
group            sphere_2     region  sphere_2
45 atoms in group sphere_2
group            oxygen_2     id 13471 13589
2 atoms in group oxygen_2
group            thorium_2    id 17128 13468
2 atoms in group thorium_2
group            3          subtract sphere_2 oxygen_2
43 atoms in group 3
group            4          union    3 thorium_2
45 atoms in group 4
delete_atoms       group      4
Deleted 45 atoms, new total = 17910

# fully relaxing the defect configuration at 0K
fix                box_relax  all  box/relax aniso 0.0 vmax 0.001
min_style          cg
minimize           1.0e-30 1.0e-30 10000 10000
PPPM initialization ...
  G vector (1/distance) = 0.299142
  grid = 40 240 40
  stencil order = 5
  estimated absolute RMS force accuracy = 0.00015485404
  estimated relative force accuracy = 1.0754018e-05
  3d grid and FFT values/proc = 18225 7600
  update every 1 steps, delay 0 steps, check yes
Step Temp E_pair E_mol TotEng Press Volume
0            0   -235606.21            0   -235606.21    -635.6715    260641.98
Loop time of 1.65221 on 52 procs for 21 steps with 17910 atoms

Minimization stats:
  Stopping criterion = linesearch alpha is zero
  Energy initial, next-to-last, final =
  Force two-norm initial, final = 289.12901 24.001418
  Force max component initial, final = 284.76484 14.900106
  Final line search alpha, max atom move = 1.4775362e-11 2.2015446e-10
  Iterations, force evaluations = 21 149

unfix              box_relax

# apply the temperature into the system and relaxing at the temperature of interest
reset_atom_ids
PPPM initialization ...
  G vector (1/distance) = 0.29914852
  grid = 40 240 40
  stencil order = 5
  estimated absolute RMS force accuracy = 0.00015477576
  estimated relative force accuracy = 1.0748581e-05
  3d grid and FFT values/proc = 18225 7600
Finding 1-2 1-3 1-4 neighbors ...
     0 = max # of 1-2 neighbors
     0 = max # of 1-3 neighbors
     0 = max # of 1-4 neighbors
     1 = max # of special neighbors
variable                    temp      equal    600
velocity                    all  create   600  4542  dist  gaussian  rot  yes  mom  yes
fix                         npt  all  npt  temp  600  600  $(100*dt) aniso  0.0  0.0  $(1000*dt)
fix                         npt  all  npt  temp  600  600  0.10000000000000000555 aniso  0.0  0.0  $(1000*dt)
fix                         npt  all  npt  temp  600  600  0.10000000000000000555 aniso  0.0  0.0  1

thermo                      10000
thermo_style                custom   step dt time atoms temp pe ke press vol

shell                       mkdir vac_0.005_600K
dump                        1  all  custom  10000  ./vac_0.005_600K/dump_relax.atom.* id type q x y z
dump_modify                 1  element  O  Th

run                         100000
PPPM initialization ...
  G vector (1/distance) = 0.29914852
  grid = 40 240 40
  stencil order = 5
  estimated absolute RMS force accuracy = 0.00015477576
  estimated relative force accuracy = 1.0748581e-05
  3d grid and FFT values/proc = 18225 7600
Step Dt Time Atoms Temp PotEng KinEng Press Volume
21        0.001            0    17910          600    -235647.2     1388.952     5702.968     260625.2
Averages over the last 6 of 12 rows, steps 60000 to 100021:
Dt Atoms Temp PotEng KinEng Press Volume
0.001 17910 597.722 -234243 1383.68 -558.463 264963
Loop time of 822.023 on 52 procs for 100000 steps with 17910 atoms

shell                       mkdir thermal_condu
write_data                  thermal_condu/vac_0.005_relaxed.dat
System init for write_data ...
PPPM initialization ...
  G vector (1/distance) = 0.29883446
  grid = 40 240 40
  stencil order = 5
  estimated absolute RMS force accuracy = 0.00015731687
  estimated relative force accuracy = 1.0925052e-05
  3d grid and FFT values/proc = 18225 7600
