LAMMPS (29 Oct 2020)
#---------------------------------------
#
# This script is used to calculate the thermal conuctivity of UO2 using Muller-Plathe method
# By Ziqiang Wang on 03/18/2022 on Jilin university
#
#---------------------------------------

variable     Nevery    equal   50
variable     T         equal   900

clear
units          metal
boundary       p p p
atom_style     full

read_data vac_0_relaxed.dat
Reading data file ...
  orthogonal box = (-0.39642517 -7.8633780 -0.39988295) to (27.736425 554.66338 27.739883)
  reading atoms ...
  30000 atoms
  reading velocities ...
  30000 velocities
Finding 1-2 1-3 1-4 neighbors ...
     0 = max # of 1-2 neighbors
     0 = max # of 1-3 neighbors
     0 = max # of 1-4 neighbors
     1 = max # of special neighbors

set           type     1    charge     -1.1104
Setting atom values ...
  20000 settings made for charge
set           type     2    charge      2.2208
Setting atom values ...
  10000 settings made for charge

kspace_style    pppm   1.0e-05
pair_style      hybrid/overlay  coul/long  11.0  eam/alloy
pair_coeff      * * coul/long
pair_coeff      * * eam/alloy CeThUNpPuAmCmO.eam.alloy O Th Th O
newton          on
neighbor        0.3 bin
neigh_modify    delay 0 check yes every 1

#The first equilation
velocity        all create $T 10004 mom yes rot yes dist gaussian
velocity        all create 900 10004 mom yes rot yes dist gaussian
fix             nvt  all  nvt  temp  $T $T  0.1
fix             nvt  all  nvt  temp  900 $T  0.1
fix             nvt  all  nvt  temp  900 900  0.1

run             100000
PPPM initialization ...
  G vector (1/distance) = 0.29767044
  grid = 40 375 40
  stencil order = 5
  estimated absolute RMS force accuracy = 0.00017239711
  estimated relative force accuracy = 1.1972317e-05
  3d grid and FFT values/proc = 22500 12000
  update every 1 steps, delay 0 steps, check yes
Step Temp E_pair E_mol TotEng Press
0          900   -391252.53            0   -387762.63   -219.05076
Loop time of 1084.74 on 52 procs for 100000 steps with 30000 atoms

unfix           nvt
reset_timestep  0

# the second run
fix             1 all nve

group           oxygen type 1
20000 atoms in group oxygen
fix             2 oxygen thermal/conductivity 50 y 20

compute         ke all ke/atom
variable        temp atom c_ke/1.5
compute         layers all chunk/atom bin/1d y lower 0.05 units reduced
fix             3      all ave/chunk  2000 50 100000 layers v_temp file profile_900K.mp

variable        Tdiff    equal     f_3[11][3]-f_3[1][3]
variable        deltaT   equal     v_Tdiff*1.5/0.0001292

timestep        0.001
thermo_style    custom step f_2 temp v_Tdiff v_deltaT
thermo          100000

run             1500000
PPPM initialization ...
  G vector (1/distance) = 0.29767044
  grid = 40 375 40
  stencil order = 5
  estimated absolute RMS force accuracy = 0.00017239711
  estimated relative force accuracy = 1.1972317e-05
  3d grid and FFT values/proc = 22500 12000
Step f_2 Temp v_Tdiff v_deltaT
0            0    898.93465            0            0
Averages over the last 8 of 16 rows, steps 800000 to 1500000:
f_2 Temp v_Tdiff v_deltaT
11226.1 897.562 0.0454044 527.141
Loop time of 16135.7 on 52 procs for 1500000 steps with 30000 atoms
