LAMMPS (29 Oct 2020)
#-------------------------
#
#This script is used to create different concentrations of vacancies in thorium dioxide
#By Ziqiang Wang on 07/03/2023
#
#-------------------------

clear
units                        metal
dimension                        3
boundary                     p p p
atom_style                   full
atom_modify                  map array

read_data                   perfect_relaxed.dat
Reading data file ...
  orthogonal box = (-0.27717828 -3.4472206 -0.27717828) to (27.617178 331.52722 27.617178)
  reading atoms ...
  18000 atoms
  reading velocities ...
  18000 velocities
Finding 1-2 1-3 1-4 neighbors ...
     0 = max # of 1-2 neighbors
     0 = max # of 1-3 neighbors
     0 = max # of 1-4 neighbors
     1 = max # of special neighbors

set                         type    1      charge   -1.1104
Setting atom values ...
  12000 settings made for charge
set                         type    2      charge    2.2208
Setting atom values ...
  6000 settings made for charge

kspace_style                pppm     1.0e-05
pair_style                  hybrid/overlay    coul/long   11.0  eam/alloy
pair_coeff                  * * coul/long
pair_coeff                  * * eam/alloy CeThUNpPuAmCmO.eam.alloy O Th
neighbor                    2.0  bin
neigh_modify                every  1  delay  0  check  yes

# randomly create vacancies in the relaxed perfect crystal
variable         vac_ratio       equal    0.01
group Th_delete  id 15424 11834   158   219  5413  1803 14594 14583 10297 10300 14365 14368                     15338 15339  5908  5907  3411  7012  3400 17810   961   904  6050  6099                     10587 14128  4945  1346  4672  1071  5197  5138 10791 14392    50  3640                     4513  4454  3111  3110 14679 14677 12698 16297   639   590 10274 10263                     14835 14834   183  3784 15987 15985 13467 13478  9375  9385   832 15230
60 atoms in group Th_delete
group O_delete   id 11826 11828 11829 11830   153   154   163   164  1752  1760  1747  1748                     14589 14590 14527 14528  6636  6644  6702  6704 10704 10712 10770 10772                     15333 15334 15283 15284  2310  2312  5851  5852  3355  3356  3414  3416                     17802 17804 17805 17806 15308 15366 15306 15310  6045  6046  6043  6044                     10531 10532 10530 10534  1284  1292  1341  1342  1074  1076  1015  1016                     1536  1544  5133  5134 10735 10736 10794 10796    45    46    42    44                      852   860  4449  4450  3055  3056  3105  3106 14623 14624 11016 11024                       12693 12694 12636 12644   583   584   585   586 10269 10270 10207 10208                     14779 14780 14829 14830   127   128   186   188 15931 15932 12324 12332                     13411 13412 13473 13474  9319  9320  5724  5732 15234 15236 15225 15226
120 atoms in group O_delete
group              delete     union   Th_delete  O_delete
180 atoms in group delete
delete_atoms       group      delete
Deleted 180 atoms, new total = 17820

# fully relaxing the defect configuration at 0K
fix                box_relax  all  box/relax aniso 0.0 vmax 0.001
min_style          cg
minimize           1.0e-30 1.0e-30 10000 10000
PPPM initialization ...
  G vector (1/distance) = 0.29913531
  grid = 40 240 40
  stencil order = 5
  estimated absolute RMS force accuracy = 0.00015449248
  estimated relative force accuracy = 1.0728909e-05
  3d grid and FFT values/proc = 11664 4000
  update every 1 steps, delay 0 steps, check yes
Step Temp E_pair E_mol TotEng Press Volume
0            0    -233742.8            0    -233742.8   -2362.9454    260641.98
Loop time of 7.6131 on 104 procs for 407 steps with 17820 atoms

Minimization stats:
  Stopping criterion = linesearch alpha is zero
  Energy initial, next-to-last, final =
  Force two-norm initial, final = 748.69007 24.866283
  Force max component initial, final = 623.26925 21.449489
  Final line search alpha, max atom move = 1.7170726e-11 3.6830331e-10
  Iterations, force evaluations = 407 790

unfix              box_relax

# apply the temperature into the system and relaxing at the temperature of interest
reset_atom_ids
PPPM initialization ...
  G vector (1/distance) = 0.29910614
  grid = 40 240 40
  stencil order = 5
  estimated absolute RMS force accuracy = 0.00015468999
  estimated relative force accuracy = 1.0742625e-05
  3d grid and FFT values/proc = 11664 4000
Finding 1-2 1-3 1-4 neighbors ...
     0 = max # of 1-2 neighbors
     0 = max # of 1-3 neighbors
     0 = max # of 1-4 neighbors
     1 = max # of special neighbors
variable                    temp      equal    600
velocity                    all  create   600  4542  dist  gaussian  rot  yes  mom  yes
fix                         npt  all  npt  temp  600  600  $(100*dt) aniso  0.0  0.0  $(1000*dt)
fix                         npt  all  npt  temp  600  600  0.10000000000000000555 aniso  0.0  0.0  $(1000*dt)
fix                         npt  all  npt  temp  600  600  0.10000000000000000555 aniso  0.0  0.0  1

thermo                      10000
thermo_style                custom   step dt time atoms temp pe ke press vol

shell                       mkdir vac_0.01_600K
dump                        1  all  custom  10000  ./vac_0.01_600K/dump_relax.atom.* id type q x y z
dump_modify                 1  element  O  Th

run                         100000
PPPM initialization ...
  G vector (1/distance) = 0.29910614
  grid = 40 240 40
  stencil order = 5
  estimated absolute RMS force accuracy = 0.00015468999
  estimated relative force accuracy = 1.0742625e-05
  3d grid and FFT values/proc = 11664 4000
Step Dt Time Atoms Temp PotEng KinEng Press Volume
407        0.001            0    17820          600   -234124.48    1381.9719    5725.0057    261162.75
Averages over the last 6 of 12 rows, steps 60000 to 100407:
Dt Atoms Temp PotEng KinEng Press Volume
0.001 17820 598.51 -232798 1378.54 -232.51 265222
Loop time of 835.192 on 104 procs for 100000 steps with 17820 atoms

shell                       mkdir thermal_condu
write_data                  thermal_condu/vac_0.01_relaxed.dat
System init for write_data ...
PPPM initialization ...
  G vector (1/distance) = 0.29882489
  grid = 40 240 40
  stencil order = 5
  estimated absolute RMS force accuracy = 0.0001569644
  estimated relative force accuracy = 1.0900574e-05
  3d grid and FFT values/proc = 11664 4000
