LAMMPS (29 Oct 2020)
#-------------------------
#
#This script is used to create different concentrations of vacancies in thorium dioxide
#By Ziqiang Wang on 07/03/2023
#
#-------------------------

clear
units                        metal
dimension                        3
boundary                     p p p
atom_style                   full
atom_modify                  map array

read_data                   perfect_relaxed.dat
Reading data file ...
  orthogonal box = (-0.27717828 -3.4472206 -0.27717828) to (27.617178 331.52722 27.617178)
  reading atoms ...
  18000 atoms
  reading velocities ...
  18000 velocities
Finding 1-2 1-3 1-4 neighbors ...
     0 = max # of 1-2 neighbors
     0 = max # of 1-3 neighbors
     0 = max # of 1-4 neighbors
     1 = max # of special neighbors

set                         type    1      charge   -1.1104
Setting atom values ...
  12000 settings made for charge
set                         type    2      charge    2.2208
Setting atom values ...
  6000 settings made for charge

kspace_style                pppm     1.0e-05
pair_style                  hybrid/overlay    coul/long   11.0  eam/alloy
pair_coeff                  * * coul/long
pair_coeff                  * * eam/alloy CeThUNpPuAmCmO.eam.alloy O Th
neighbor                    2.0  bin
neigh_modify                every  1  delay  0  check  yes

# randomly create vacancies in the relaxed perfect crystal
variable         vac_ratio       equal    0.005
group Th_delete  id   97 14498 14487 14488 14557 14547 16167  1777 16178 16237 16180 12578                       6016  6026  6025  5968  5966  9625 11053 11054 11043 10994 10996  7455                       757   748 15158 15207 15217 15208
30 atoms in group Th_delete
group O_delete   id 14436 14444 14493 14494 14431 14432 10890 10892 10896 10904 14491 14492                     16111 16112 16116 16124 16173 16174 12576 12584 12582 12586 12573 12574                     2418  2420  6021  6022  2364  2372  2370  2374  5961  5962  5964  5972                      7392  7400 11049 11050 10987 10988 10989 10990  7398  7402  7399  7403                      15096 15104 15150 15152 15153 15154 15151 15155 11556 11564 11610 11612
60 atoms in group O_delete

group              delete     union   Th_delete  O_delete
90 atoms in group delete
delete_atoms       group      delete
Deleted 90 atoms, new total = 17910

# fully relaxing the defect configuration at 0K
fix                box_relax  all  box/relax aniso 0.0 vmax 0.001
min_style          cg
minimize           1.0e-30 1.0e-30 10000 10000
PPPM initialization ...
  G vector (1/distance) = 0.299142
  grid = 40 240 40
  stencil order = 5
  estimated absolute RMS force accuracy = 0.00015485404
  estimated relative force accuracy = 1.0754018e-05
  3d grid and FFT values/proc = 18225 7600
  update every 1 steps, delay 0 steps, check yes
Step Temp E_pair E_mol TotEng Press Volume
0            0   -235316.68            0   -235316.68   -938.38726    260641.98
Loop time of 0.858023 on 52 procs for 18 steps with 17910 atoms

Minimization stats:
  Stopping criterion = linesearch alpha is zero
  Energy initial, next-to-last, final =
  Force two-norm initial, final = 376.82753 192.12374
  Force max component initial, final = 357.52825 133.13218
  Final line search alpha, max atom move = 2.5705938e-13 3.4222877e-11
  Iterations, force evaluations = 18 75

unfix              box_relax

# apply the temperature into the system and relaxing at the temperature of interest
reset_atom_ids
PPPM initialization ...
  G vector (1/distance) = 0.29915671
  grid = 40 240 40
  stencil order = 5
  estimated absolute RMS force accuracy = 0.00015472255
  estimated relative force accuracy = 1.0744887e-05
  3d grid and FFT values/proc = 18225 7600
Finding 1-2 1-3 1-4 neighbors ...
     0 = max # of 1-2 neighbors
     0 = max # of 1-3 neighbors
     0 = max # of 1-4 neighbors
     1 = max # of special neighbors
variable                    temp      equal    600
velocity                    all  create   600  4542  dist  gaussian  rot  yes  mom  yes
fix                         npt  all  npt  temp  600  600  $(100*dt) aniso  0.0  0.0  $(1000*dt)
fix                         npt  all  npt  temp  600  600  0.10000000000000000555 aniso  0.0  0.0  $(1000*dt)
fix                         npt  all  npt  temp  600  600  0.10000000000000000555 aniso  0.0  0.0  1

thermo                      10000
thermo_style                custom   step dt time atoms temp pe ke press vol

shell                       mkdir vac_0.005_600K
dump                        1  all  custom  10000  ./vac_0.005_600K/dump_relax.atom.* id type q x y z
dump_modify                 1  element  O  Th

run                         100000
PPPM initialization ...
  G vector (1/distance) = 0.29915671
  grid = 40 240 40
  stencil order = 5
  estimated absolute RMS force accuracy = 0.00015472255
  estimated relative force accuracy = 1.0744887e-05
  3d grid and FFT values/proc = 18225 7600
Step Dt Time Atoms Temp PotEng KinEng Press Volume
18        0.001            0    17910          600   -235377.07     1388.952    6074.9865    260472.76
Averages over the last 6 of 12 rows, steps 60000 to 100018:
Dt Atoms Temp PotEng KinEng Press Volume
0.001 17910 601.533 -234199 1392.5 -129.954 264929
Loop time of 825.496 on 52 procs for 100000 steps with 17910 atoms

shell                       mkdir thermal_condu
write_data                  thermal_condu/vac_0.005_relaxed.dat
System init for write_data ...
PPPM initialization ...
  G vector (1/distance) = 0.29883599
  grid = 40 240 40
  stencil order = 5
  estimated absolute RMS force accuracy = 0.00015730388
  estimated relative force accuracy = 1.092415e-05
  3d grid and FFT values/proc = 18225 7600
