LAMMPS (29 Oct 2020)
#-------------------------
#
#This script is used to create different concentrations of vacancies in thorium dioxide
#By Ziqiang Wang on 07/03/2023
#
#-------------------------

clear
units                        metal
dimension                        3
boundary                     p p p
atom_style                   full
atom_modify                  map array

read_data                   perfect_relaxed.dat
Reading data file ...
  orthogonal box = (-0.27717828 -3.4472206 -0.27717828) to (27.617178 331.52722 27.617178)
  reading atoms ...
  18000 atoms
  reading velocities ...
  18000 velocities
Finding 1-2 1-3 1-4 neighbors ...
     0 = max # of 1-2 neighbors
     0 = max # of 1-3 neighbors
     0 = max # of 1-4 neighbors
     1 = max # of special neighbors

# randomly create vacancies in the relaxed perfect crystal
variable         vac_ratio       equal    0.015
region           sphere    sphere     13.67 69.1306 13.67 6.0  units box
group            sphere     region  sphere
51 atoms in group sphere
group            oxygen     id 8003 4412 11611 8004
4 atoms in group oxygen
group            thorium    id 8067
1 atoms in group thorium
group            1          subtract sphere thorium
50 atoms in group 1
group            cluster          union    1 oxygen
54 atoms in group cluster
group            Th       type     2
6000 atoms in group Th
group            O        type     1
12000 atoms in group O
group            Th_group   intersect  cluster   Th
18 atoms in group Th_group
group            O_group    intersect  cluster   O
36 atoms in group O_group
delete_atoms     group      cluster
Deleted 54 atoms, new total = 17946
region           sphere     delete
group            sphere     delete
group            oxygen     delete
group            thorium    delete
group            1          delete
group            cluster    delete
group            Th         delete
group            O          delete
group            Th_group   delete
group            O_group    delete

region           sphere    sphere     13.67 108.211 13.67 6.0  units box
group            sphere     region  sphere
51 atoms in group sphere
group            oxygen     id 4832 8423 12031 8424
4 atoms in group oxygen
group            thorium    id 8487
1 atoms in group thorium
group            1          subtract sphere thorium
50 atoms in group 1
group            cluster          union    1 oxygen
54 atoms in group cluster
group            Th       type     2
5982 atoms in group Th
group            O        type     1
11964 atoms in group O
group            Th_group   intersect  cluster   Th
18 atoms in group Th_group
group            O_group    intersect  cluster   O
36 atoms in group O_group
delete_atoms     group      cluster
Deleted 54 atoms, new total = 17892
region           sphere     delete
group            sphere     delete
group            oxygen     delete
group            thorium    delete
group            1          delete
group            cluster    delete
group            Th         delete
group            O          delete
group            Th_group   delete
group            O_group    delete

region           sphere    sphere     13.67 147.291 13.67 6.0  units box
group            sphere     region  sphere
51 atoms in group sphere
group            oxygen     id 5252 8843 12451 8844
4 atoms in group oxygen
group            thorium    id 8907
1 atoms in group thorium
group            1          subtract sphere thorium
50 atoms in group 1
group            cluster          union    1 oxygen
54 atoms in group cluster
group            Th       type     2
5964 atoms in group Th
group            O        type     1
11928 atoms in group O
group            Th_group   intersect  cluster   Th
18 atoms in group Th_group
group            O_group    intersect  cluster   O
36 atoms in group O_group
delete_atoms     group      cluster
Deleted 54 atoms, new total = 17838
region           sphere     delete
group            sphere     delete
group            oxygen     delete
group            thorium    delete
group            1          delete
group            cluster    delete
group            Th         delete
group            O          delete
group            Th_group   delete
group            O_group    delete

region           sphere    sphere     13.67 225.452 13.67 6.0  units box
group            sphere     region  sphere
51 atoms in group sphere
group            oxygen     id 6092 9683 13291 9684
4 atoms in group oxygen
group            thorium    id 9747
1 atoms in group thorium
group            1          subtract sphere thorium
50 atoms in group 1
group            cluster          union    1 oxygen
54 atoms in group cluster
group            Th       type     2
5946 atoms in group Th
group            O        type     1
11892 atoms in group O
group            Th_group   intersect  cluster   Th
18 atoms in group Th_group
group            O_group    intersect  cluster   O
36 atoms in group O_group
delete_atoms     group      cluster
Deleted 54 atoms, new total = 17784
region           sphere     delete
group            sphere     delete
group            oxygen     delete
group            thorium    delete
group            1          delete
group            cluster    delete
group            Th         delete
group            O          delete
group            Th_group   delete
group            O_group    delete

region           sphere    sphere     13.67 264.532 13.67 6.0  units box
group            sphere     region  sphere
51 atoms in group sphere
group            oxygen     id 6512 10103 13711 10104
4 atoms in group oxygen
group            thorium    id 10167
1 atoms in group thorium
group            1          subtract sphere thorium
50 atoms in group 1
group            cluster          union    1 oxygen
54 atoms in group cluster
group            Th       type     2
5928 atoms in group Th
group            O        type     1
11856 atoms in group O
group            Th_group   intersect  cluster   Th
18 atoms in group Th_group
group            O_group    intersect  cluster   O
36 atoms in group O_group
delete_atoms     group      cluster
Deleted 54 atoms, new total = 17730
region           sphere     delete
group            sphere     delete
group            oxygen     delete
group            thorium    delete
group            1          delete
group            cluster    delete
group            Th         delete
group            O          delete
group            Th_group   delete
group            O_group    delete

set                         type    1      charge   -1.1104
Setting atom values ...
  11820 settings made for charge
set                         type    2      charge    2.2208
Setting atom values ...
  5910 settings made for charge
kspace_style                pppm     1.0e-05
pair_style                  hybrid/overlay    coul/long   11.0  eam/alloy
pair_coeff                  * * coul/long
pair_coeff                  * * eam/alloy CeThUNpPuAmCmO.eam.alloy O Th
neighbor                    2.0  bin
neigh_modify                every  1  delay  0  check  yes

# fully relaxing the defect configuration at 0K
fix                box_relax  all  box/relax aniso 0.0 vmax 0.001
min_style          cg
minimize           1.0e-30 1.0e-30 10000 10000
PPPM initialization ...
  G vector (1/distance) = 0.29912852
  grid = 40 240 40
  stencil order = 5
  estimated absolute RMS force accuracy = 0.00015413022
  estimated relative force accuracy = 1.0703751e-05
  3d grid and FFT values/proc = 18225 7600
  update every 1 steps, delay 0 steps, check yes
Step Temp E_pair E_mol TotEng Press Volume
0            0   -232894.72            0   -232894.72   -1429.5634    260641.98
Loop time of 1.73889 on 52 procs for 52 steps with 17730 atoms

Minimization stats:
  Stopping criterion = linesearch alpha is zero
  Energy initial, next-to-last, final =
  Force two-norm initial, final = 570.51704 1261.9662
  Force max component initial, final = 548.98333 786.86478
  Final line search alpha, max atom move = 5.5926392e-15 4.4006508e-12
  Iterations, force evaluations = 52 154

unfix              box_relax

# apply the temperature into the system and relaxing at the temperature of interest
reset_atom_ids
PPPM initialization ...
  G vector (1/distance) = 0.29908862
  grid = 40 240 40
  stencil order = 5
  estimated absolute RMS force accuracy = 0.00015442454
  estimated relative force accuracy = 1.0724191e-05
  3d grid and FFT values/proc = 18225 7600
Finding 1-2 1-3 1-4 neighbors ...
     0 = max # of 1-2 neighbors
     0 = max # of 1-3 neighbors
     0 = max # of 1-4 neighbors
     1 = max # of special neighbors
variable                    temp      equal    600
velocity                    all  create   600  4542  dist  gaussian  rot  yes  mom  yes
fix                         npt  all  npt  temp  600  600  $(100*dt) aniso  0.0  0.0  $(1000*dt)
fix                         npt  all  npt  temp  600  600  0.10000000000000000555 aniso  0.0  0.0  $(1000*dt)
fix                         npt  all  npt  temp  600  600  0.10000000000000000555 aniso  0.0  0.0  1

thermo                      10000
thermo_style                custom   step dt time atoms temp pe ke press vol

shell                       mkdir vac_0.015_600K
dump                        1  all  custom  10000  ./vac_0.015_600K/dump_relax.atom.* id type q x y z
dump_modify                 1  element  O  Th

run                         100000
PPPM initialization ...
  G vector (1/distance) = 0.29908862
  grid = 40 240 40
  stencil order = 5
  estimated absolute RMS force accuracy = 0.00015442454
  estimated relative force accuracy = 1.0724191e-05
  3d grid and FFT values/proc = 18225 7600
Step Dt Time Atoms Temp PotEng KinEng Press Volume
52        0.001            0    17730          600   -233070.57    1374.9919    1157.5184    261282.95
Averages over the last 6 of 12 rows, steps 60000 to 100052:
Dt Atoms Temp PotEng KinEng Press Volume
0.001 17730 596.175 -231736 1366.23 -553.22 264979
Loop time of 820.053 on 52 procs for 100000 steps with 17730 atoms

shell                       mkdir thermal_condu
write_data                  thermal_condu/vac_0.015_relaxed.dat
System init for write_data ...
PPPM initialization ...
  G vector (1/distance) = 0.2988212
  grid = 40 240 40
  stencil order = 5
  estimated absolute RMS force accuracy = 0.00015656749
  estimated relative force accuracy = 1.087301e-05
  3d grid and FFT values/proc = 18225 7600
