LAMMPS (29 Oct 2020)
#-------------------------
#
#This script is used to create different concentrations of vacancies in thorium dioxide
#By Ziqiang Wang on 07/03/2023
#
#-------------------------

clear
units                        metal
dimension                        3
boundary                     p p p
atom_style                   full
atom_modify                  map array

read_data                   perfect_relaxed.dat
Reading data file ...
  orthogonal box = (-0.27717828 -3.4472206 -0.27717828) to (27.617178 331.52722 27.617178)
  reading atoms ...
  18000 atoms
  reading velocities ...
  18000 velocities
Finding 1-2 1-3 1-4 neighbors ...
     0 = max # of 1-2 neighbors
     0 = max # of 1-3 neighbors
     0 = max # of 1-4 neighbors
     1 = max # of special neighbors

set                         type    1      charge   -1.1104
Setting atom values ...
  12000 settings made for charge
set                         type    2      charge    2.2208
Setting atom values ...
  6000 settings made for charge

kspace_style                pppm     1.0e-05
pair_style                  hybrid/overlay    coul/long   11.0  eam/alloy
pair_coeff                  * * coul/long
pair_coeff                  * * eam/alloy CeThUNpPuAmCmO.eam.alloy O Th
neighbor                    2.0  bin
neigh_modify                every  1  delay  0  check  yes

# randomly create vacancies in the relaxed perfect crystal
variable         vac_ratio       equal    0.005
group Th_delete  id 9087  4563  5581 13276 16588 17630   832  6903 15375 11978 15985  9543                     4804  4225  5665  7479  2150  1587 14209  7024  8955  7633  3470  1790                     17392   866 14524 17008 16468 14233
30 atoms in group Th_delete
group O_delete   id 9031  9032  4507  4508  1928  1986  9678  9680 12990 12992 17625 17626                      15234 15236  6847  6848 15319 15320 11973 11974 12324 12332  9487  9488                     1206  1208   564   572  2004  2012  7423  7424  2145  2146  1531  1532                     10548 10556  3426  3428  8899  8900  3972  3980  3465  3466  1785  1786                      13794 13796   861   862 10926 10928 13410 13412 12870 12872 10572 10580
60 atoms in group O_delete
group              delete     union   Th_delete  O_delete
90 atoms in group delete
delete_atoms       group      delete
Deleted 90 atoms, new total = 17910

# fully relaxing the defect configuration at 0K
fix                box_relax  all  box/relax aniso 0.0 vmax 0.001
min_style          cg
minimize           1.0e-30 1.0e-30 10000 10000
PPPM initialization ...
  G vector (1/distance) = 0.299142
  grid = 40 240 40
  stencil order = 5
  estimated absolute RMS force accuracy = 0.00015485404
  estimated relative force accuracy = 1.0754018e-05
  3d grid and FFT values/proc = 18225 7600
  update every 1 steps, delay 0 steps, check yes
Step Temp E_pair E_mol TotEng Press Volume
0            0   -235337.93            0   -235337.93   -1360.7358    260641.98
Loop time of 0.80572 on 52 procs for 15 steps with 17910 atoms

Minimization stats:
  Stopping criterion = linesearch alpha is zero
  Energy initial, next-to-last, final =
  Force two-norm initial, final = 457.44167 82.308495
  Force max component initial, final = 407.71332 19.150780
  Final line search alpha, max atom move = 7.6414845e-13 1.4634038e-11
  Iterations, force evaluations = 15 70

unfix              box_relax

# apply the temperature into the system and relaxing at the temperature of interest
reset_atom_ids
PPPM initialization ...
  G vector (1/distance) = 0.2991611
  grid = 40 240 40
  stencil order = 5
  estimated absolute RMS force accuracy = 0.00015467207
  estimated relative force accuracy = 1.0741381e-05
  3d grid and FFT values/proc = 18225 7600
Finding 1-2 1-3 1-4 neighbors ...
     0 = max # of 1-2 neighbors
     0 = max # of 1-3 neighbors
     0 = max # of 1-4 neighbors
     1 = max # of special neighbors
variable                    temp      equal    900
velocity                    all  create   900  4542  dist  gaussian  rot  yes  mom  yes
fix                         npt  all  npt  temp  900  900  $(100*dt) aniso  0.0  0.0  $(1000*dt)
fix                         npt  all  npt  temp  900  900  0.10000000000000000555 aniso  0.0  0.0  $(1000*dt)
fix                         npt  all  npt  temp  900  900  0.10000000000000000555 aniso  0.0  0.0  1

thermo                      10000
thermo_style                custom   step dt time atoms temp pe ke press vol

shell                       mkdir vac_0.005_900K
dump                        1  all  custom  10000  ./vac_0.005_900K/dump_relax.atom.* id type q x y z
dump_modify                 1  element  O  Th

run                         100000
PPPM initialization ...
  G vector (1/distance) = 0.2991611
  grid = 40 240 40
  stencil order = 5
  estimated absolute RMS force accuracy = 0.00015467207
  estimated relative force accuracy = 1.0741381e-05
  3d grid and FFT values/proc = 18225 7600
Step Dt Time Atoms Temp PotEng KinEng Press Volume
15        0.001            0    17910          900   -235376.15    2083.4279    8660.6415    260454.82
Averages over the last 6 of 12 rows, steps 60000 to 100015:
Dt Atoms Temp PotEng KinEng Press Volume
0.001 17910 902.655 -233358 2089.57 -285.171 267510
Loop time of 824.292 on 52 procs for 100000 steps with 17910 atoms

shell                       mkdir thermal_condu
write_data                  thermal_condu/vac_0.005_relaxed.dat
System init for write_data ...
PPPM initialization ...
  G vector (1/distance) = 0.2986594
  grid = 40 240 40
  stencil order = 5
  estimated absolute RMS force accuracy = 0.00015871146
  estimated relative force accuracy = 1.1021901e-05
  3d grid and FFT values/proc = 18225 7600
