LAMMPS (29 Oct 2020)
#-------------------------
#
#This script is used to create different concentrations of antisites in uranium dioxide
#By Ziqiang Wang on 02/03/2022
#
#-------------------------

clear
units                        metal
dimension                        3
boundary                     p p p
atom_style                   full
atom_modify                  map array

read_data                   perfect_relaxed.dat
Reading data file ...
  orthogonal box = (-0.27717828 -3.4472206 -0.27717828) to (27.617178 331.52722 27.617178)
  reading atoms ...
  18000 atoms
  reading velocities ...
  18000 velocities
Finding 1-2 1-3 1-4 neighbors ...
     0 = max # of 1-2 neighbors
     0 = max # of 1-3 neighbors
     0 = max # of 1-4 neighbors
     1 = max # of special neighbors

# Create antisites in the relaxed perfect configuration
variable                    ratio     equal   0.01
group                       Th        id   12951  5764  6592  2812  4609 15530  8354  4084  5593  3553  1396  3122                                            14773  3397  3109 13046  4718 15028  6266 16804  5078  9626 15146 17546                                            12088 14032  4875 13922 14606  1225  9601 13599 10516   988  8823  7515                                            13828  5449  8896  9769 10046 15337  1959  8029  7107 15303 10153 13072                                            7635  1780  8572 14858 11329   565 12615 13672  8931  7562 16564  8593                                             17930 17020    37 15483  7261  6890  1504  3362 14992 12182 17164 13393                                            10261 14486 15662  3433   289  3220   664 12700  2728  7347 14055 13322                                            9904   772  8188 14163  8342 15925
90 atoms in group Th

group                       O         id     5   29   53   79  103  179  185  209  259  283  359  365  389  463                                             539  563  607  643  683  719  727  763  803  839  847  923  967 1043                                            1075 1087 1171 1195 1267 1295 1319 1387 1425 1499 1507 1531 1607 1627                                            1651 1737 1747 1771 1877 2015 2039 2047 2131 2155 2243 2267 2287 2363                                            2387 2407 2483 2517 2527 2563 2639 2647 2735 2759 2767 2843 2865 2887                                            2963 3043 3083 3119 3163 3203 3331 3359 3465 3487 3539 3563 3642 3716                                            3798 3824 3900 3944 4112 4188
90 atoms in group O

set              group      Th        type    1
Setting atom values ...
  90 settings made for type
set              group      O         type    2
Setting atom values ...
  90 settings made for type

set                         type    1      charge   -1.1104
Setting atom values ...
  12000 settings made for charge
set                         type    2      charge    2.2208
Setting atom values ...
  6000 settings made for charge

kspace_style                pppm     1.0e-05
pair_style                  hybrid/overlay    coul/long   11.0  eam/alloy
pair_coeff                  * * coul/long
pair_coeff                  * * eam/alloy CeThUNpPuAmCmO.eam.alloy O Th
neighbor                    2.0  bin
neigh_modify                every  1  delay  0  check  yes

# Fully relaxing the defect configuration at 0K
fix                         box_relax  all  box/relax  aniso  0.0  vmax  0.001
min_style                   cg
minimize                    1.0e-30 1.0e-30 10000 10000
PPPM initialization ...
  G vector (1/distance) = 0.2991486
  grid = 40 240 40
  stencil order = 5
  estimated absolute RMS force accuracy = 0.00015521489
  estimated relative force accuracy = 1.0779078e-05
  3d grid and FFT values/proc = 18225 7600
  update every 1 steps, delay 0 steps, check yes
Step Temp E_pair E_mol TotEng Press Volume
0            0   -223404.58            0   -223404.58    42412.933    260641.98
Loop time of 34.0649 on 52 procs for 2280 steps with 18000 atoms

Minimization stats:
  Stopping criterion = linesearch alpha is zero
  Energy initial, next-to-last, final =
  Force two-norm initial, final = 13098.711 41.933406
  Force max component initial, final = 10141.283 23.339802
  Final line search alpha, max atom move = 5.1075535e-12 1.1920929e-10
  Iterations, force evaluations = 2280 3212

unfix                       box_relax
reset_timestep              0

variable                    lattx        equal     lx/5
variable                    latty        equal     ly/60
variable                    lattz        equal     lz/5
variable                    latt         equal     (lx/5+ly/60+lz/5)/3.0
variable                    temp         equal     1200.0
velocity                    all  create   1200  45362  dist  gaussian  rot  yes  mom  yes
fix                         npt  all  npt  temp  1200  1200   $(100*dt) aniso  0.0  0.0  $(1000*dt)
fix                         npt  all  npt  temp  1200  1200   0.10000000000000000555 aniso  0.0  0.0  $(1000*dt)
fix                         npt  all  npt  temp  1200  1200   0.10000000000000000555 aniso  0.0  0.0  1

thermo                      10000
thermo_style                custom   step dt time atoms temp pe ke press vol v_latt
timestep                    0.001

shell                       mkdir antisite_1200K_0.01
dump                        1  all  custom  50000  ./antisite_1200K_0.01/dump_relax.atom.* id type x y z
dump_modify                 1  element  O  Th

run                         100000
PPPM initialization ...
  G vector (1/distance) = 0.29864975
  grid = 40 240 40
  stencil order = 5
  estimated absolute RMS force accuracy = 0.00015893325
  estimated relative force accuracy = 1.1037303e-05
  3d grid and FFT values/proc = 18225 7600
Step Dt Time Atoms Temp PotEng KinEng Press Volume v_latt
0        0.001            0    18000         1200   -233823.49     2791.864    11202.181    268728.24    5.6373768
Averages over the last 6 of 11 rows, steps 50000 to 100000:
Dt Atoms Temp PotEng KinEng Press Volume v_latt
0.001 18000 1199.69 -232961 2791.14 122.434 273032 5.66727
Loop time of 824.043 on 52 procs for 100000 steps with 18000 atoms

shell                       mkdir thermal_condu
write_data                  ./thermal_condu/antisite_0.01_relaxed.dat
System init for write_data ...
PPPM initialization ...
  G vector (1/distance) = 0.29827873
  grid = 40 240 40
  stencil order = 5
  estimated absolute RMS force accuracy = 0.00016230473
  estimated relative force accuracy = 1.127144e-05
  3d grid and FFT values/proc = 18225 7600
