LAMMPS (29 Oct 2020)
#-------------------------
#
#This script is used to create different concentrations of vacancies in thorium dioxide
#By Ziqiang Wang on 07/03/2023
#
#-------------------------

clear
units                        metal
dimension                        3
boundary                     p p p
atom_style                   full
atom_modify                  map array

read_data                   perfect_relaxed.dat
Reading data file ...
  orthogonal box = (-0.27717828 -3.4472206 -0.27717828) to (27.617178 331.52722 27.617178)
  reading atoms ...
  18000 atoms
  reading velocities ...
  18000 velocities
Finding 1-2 1-3 1-4 neighbors ...
     0 = max # of 1-2 neighbors
     0 = max # of 1-3 neighbors
     0 = max # of 1-4 neighbors
     1 = max # of special neighbors

# randomly create vacancies in the relaxed perfect crystal
variable                   vac_ratio    equal  0.015
group                      Th_delete    id  15493 11883 11894 11834 11893  1585 15975  1576  1516  1573  8870  8919                                              12460  8860  8917  5642  9301  5703  9304  9302 14689 14632 11091 11090                                              11089 12361  8702  8763  8761  8764 12868 12865  9267  9266  9327  8955                                              12496 12565 12506 12567  8281  4682  4683  8284  4694  2367  5977  2378                                              2379  5980 17128 17125 13527 17127 17138  5295  5305  5246  5307  5306                                              734   735  4333   723   674 12050 12052 12111 12109  8450  3745  3688                                              3686  3735  3746  6340  2799  6397  6399  6350  4588  4647  4657  4648                                              4645 16801 16804 16802 16863 16873
90 atoms in group Th_delete

group                       O_delete    id  11832 11840 11827 11828 11889 11890 11829 11830  8232  8240 15924 15932                                              15919 15920 15978 15980 15918 15922 15912 15970  8865  8866  8863  8864                                              8862  8868  5262  5264  5256  5314  5645  5646  5648  5706  5647  5651                                              5708  5710  9305  9306 11028 11036 11034 11038 11035 11039 11085 11086                                              7428  7436  8708  8766  8705  8706  8707  8711  5108  5166  5168  5170                                              9270  9272  9204  9212  9211  9215  9261  9262  9271  9275  8899  8900                                              8898  8902  8904  8912 12501 12502 12511 12512  4628  4686  4685  4687                                              4627  4631  4688  4690  4689  4691  2311  2312  2316  2324  2373  2374                                              2323  2327  2382  2384 13530 13532 13464 13472 13471 13475 17071 17072                                              17133 17134  5239  5240  1644  1652  5241  5242  5251  5252  5301  5302                                              729   730   679   680   672   738   667   668   669   670 12045 12046                                              8454  8456 12055 12056  8448  8506  8445  8446    84    92    90    94                                              3681  3682  3679  3680  3741  3742  2742  2744  2743  2747  2736  2794                                              6343  6344  6345  6346   990   992  4591  4592   996  1004  1050  1052                                              984  1042 13148 13206 13208 13210 16805 16806 16807 16808 13212 13220
180 atoms in group O_delete

group                       delete      union   Th_delete  O_delete
270 atoms in group delete
delete_atoms                group       delete
Deleted 270 atoms, new total = 17730

set                         type    1      charge   -1.1104
Setting atom values ...
  11820 settings made for charge
set                         type    2      charge    2.2208
Setting atom values ...
  5910 settings made for charge
kspace_style                pppm     1.0e-05
pair_style                  hybrid/overlay    coul/long   11.0  eam/alloy
pair_coeff                  * * coul/long
pair_coeff                  * * eam/alloy CeThUNpPuAmCmO.eam.alloy O Th
neighbor                    2.0  bin
neigh_modify                every  1  delay  0  check  yes

# fully relaxing the defect configuration at 0K
fix                box_relax  all  box/relax aniso 0.0 vmax 0.001
min_style          cg
minimize           1.0e-30 1.0e-30 10000 10000
PPPM initialization ...
  G vector (1/distance) = 0.29912852
  grid = 40 240 40
  stencil order = 5
  estimated absolute RMS force accuracy = 0.00015413022
  estimated relative force accuracy = 1.0703751e-05
  3d grid and FFT values/proc = 18225 7600
  update every 1 steps, delay 0 steps, check yes
Step Temp E_pair E_mol TotEng Press Volume
0            0   -232243.64            0   -232243.64    -2672.107    260641.98
Loop time of 5.01349 on 52 procs for 268 steps with 17730 atoms

Minimization stats:
  Stopping criterion = linesearch alpha is zero
  Energy initial, next-to-last, final =
  Force two-norm initial, final = 812.88749 12.819443
  Force max component initial, final = 651.50075 6.6827253
  Final line search alpha, max atom move = 6.8871445e-11 4.6024895e-10
  Iterations, force evaluations = 268 460

unfix              box_relax

# apply the temperature into the system and relaxing at the temperature of interest
reset_atom_ids
PPPM initialization ...
  G vector (1/distance) = 0.29910624
  grid = 40 240 40
  stencil order = 5
  estimated absolute RMS force accuracy = 0.00015427514
  estimated relative force accuracy = 1.0713815e-05
  3d grid and FFT values/proc = 18225 7600
Finding 1-2 1-3 1-4 neighbors ...
     0 = max # of 1-2 neighbors
     0 = max # of 1-3 neighbors
     0 = max # of 1-4 neighbors
     1 = max # of special neighbors
variable                    temp      equal    600
velocity                    all  create   600  4542  dist  gaussian  rot  yes  mom  yes
fix                         npt  all  npt  temp  600  600  $(100*dt) aniso  0.0  0.0  $(1000*dt)
fix                         npt  all  npt  temp  600  600  0.10000000000000000555 aniso  0.0  0.0  $(1000*dt)
fix                         npt  all  npt  temp  600  600  0.10000000000000000555 aniso  0.0  0.0  1

thermo                      20000
thermo_style                custom   step dt time atoms temp pe ke press vol

shell                       mkdir vac_0.015_600K
dump                        1  all  custom  20000  ./vac_0.015_600K/dump_relax.atom.* id type q x y z
dump_modify                 1  element  O  Th

run                         100000
PPPM initialization ...
  G vector (1/distance) = 0.29910624
  grid = 40 240 40
  stencil order = 5
  estimated absolute RMS force accuracy = 0.00015427514
  estimated relative force accuracy = 1.0713815e-05
  3d grid and FFT values/proc = 18225 7600
Step Dt Time Atoms Temp PotEng KinEng Press Volume
268        0.001            0    17730          600   -232755.51    1374.9919    5659.2898    261056.78
Loop time of 803.443 on 52 procs for 100000 steps with 17730 atoms

shell                       mkdir thermal_condu
write_data                  thermal_condu/vac_0.015_relaxed.dat
System init for write_data ...
PPPM initialization ...
  G vector (1/distance) = 0.29880975
  grid = 40 240 40
  stencil order = 5
  estimated absolute RMS force accuracy = 0.00015670239
  estimated relative force accuracy = 1.0882379e-05
  3d grid and FFT values/proc = 18225 7600
