LAMMPS (29 Oct 2020)
#-------------------------------
#
#This input script is used to simulate the defected configuration generated by overlapping cascades initiated at
#different energies
#Ziqiang Wang on 01/24/2022
#
#-------------------------------
variable          temp   index  900

clear
units                    metal
dimension                    3
boundary                 p p p
atom_style               full
atom_modify              map  array

read_data                perfect_relaxed.dat
Reading data file ...
  triclinic box = (0.0000000 0.0000000 0.0000000) to (27.894000 334.72800 27.894000) with tilt (0.0000000 0.0000000 0.0000000)
  reading atoms ...
  24000 atoms
  reading velocities ...
  24000 velocities
Finding 1-2 1-3 1-4 neighbors ...
     0 = max # of 1-2 neighbors
     0 = max # of 1-3 neighbors
     0 = max # of 1-4 neighbors
     1 = max # of special neighbors

variable         vac_ratio    equal   0.0025
group            vac_Th   id  1519 4864 2559 3137 1543 2432 5999 2261 2593 3351  983 1488 3100 1748 3792
15 atoms in group vac_Th
group            oct_Th   id  18003 18004 18007 18008 18010 18013 18014 18017 18018 18020 18023 18024 18027 18028 18030
15 atoms in group oct_Th
group            vac_O    id  7373 10328 12240 14655 16323  8208  9258 16526  9502 10828  6576 12783                                16577 16708 11406 15142 12543  7805 17792 13698 10911 13882 12243  7476                               13363 10511  9552 17365 13102 17686
30 atoms in group vac_O
group            oct_O    id  18001 18002 18005 18006 18009 18011 18012 18015 18016 18019 18021 18022                                18025 18026 18029 18031 18032 18035 18036 18039 18041 18042 18045 18046                                18051 18052 18055 18056 18059 18061
30 atoms in group oct_O

group            tot_oct_Th    type    4
3000 atoms in group tot_oct_Th
group            tot_oct_O     type    3
3000 atoms in group tot_oct_O
group            delete_oct_Th  subtract   tot_oct_Th  oct_Th
2985 atoms in group delete_oct_Th
group            delete_oct_O   subtract   tot_oct_O   oct_O
2970 atoms in group delete_oct_O
delete_atoms              group     delete_oct_Th
Deleted 2985 atoms, new total = 21015
delete_atoms              group     delete_oct_O
Deleted 2970 atoms, new total = 18045
delete_atoms              group     vac_Th
Deleted 15 atoms, new total = 18030
delete_atoms              group     vac_O
Deleted 30 atoms, new total = 18000

kspace_style                   pppm            1.0e-5
pair_style                     hybrid/overlay     coul/long    11.0   eam/alloy
pair_coeff                     * * coul/long
pair_coeff                     * * eam/alloy CeThUNpPuAmCmO.eam.alloy O Th O Th
neighbor                 2.0  bin
neigh_modify             delay  0  every  1  check   yes

set                      type      1      charge    -1.1104
Setting atom values ...
  11970 settings made for charge
set                      type      2      charge     2.2208
Setting atom values ...
  5985 settings made for charge
set                      type      3      charge    -1.1104
Setting atom values ...
  30 settings made for charge
set                      type      4      charge     2.2208
Setting atom values ...
  15 settings made for charge

# Minimize the defected configuration at 0K
min_style                cg
fix                      relax   all  box/relax  aniso 0.0 vmax 0.001
minimize                 1.0e-30 1.0e-30 10000 10000
PPPM initialization ...
  G vector (1/distance) = 0.29916851
  grid = 40 240 40
  stencil order = 5
  estimated absolute RMS force accuracy = 0.00015502622
  estimated relative force accuracy = 1.0765975e-05
  3d grid and FFT values/proc = 18225 7600
  update every 1 steps, delay 0 steps, check yes
Step Temp E_pair E_mol TotEng Press Volume
0            0    -235697.8            0    -235697.8    6271.6402    260443.57
Loop time of 3.59925 on 52 procs for 165 steps with 18000 atoms

Minimization stats:
  Stopping criterion = linesearch alpha is zero
  Energy initial, next-to-last, final =
  Force two-norm initial, final = 1829.3532 72.401976
  Force max component initial, final = 1321.6461 53.673204
  Final line search alpha, max atom move = 1.9260330e-12 1.0337636e-10
  Iterations, force evaluations = 165 319

unfix                    relax
reset_timestep           0

# Apply the temperature to the system and relax the configurations
reset_atom_ids
PPPM initialization ...
  G vector (1/distance) = 0.29908384
  grid = 40 240 40
  stencil order = 5
  estimated absolute RMS force accuracy = 0.00015569501
  estimated relative force accuracy = 1.081242e-05
  3d grid and FFT values/proc = 18225 7600
Finding 1-2 1-3 1-4 neighbors ...
     0 = max # of 1-2 neighbors
     0 = max # of 1-3 neighbors
     0 = max # of 1-4 neighbors
     1 = max # of special neighbors
velocity                 all  create  900  4526826  rot  yes  mom  yes  dist  gaussian
fix                      npt  all  npt  temp  900  900  $(100*dt)  aniso  0.0  0.0  $(1000*dt)
fix                      npt  all  npt  temp  900  900  0.10000000000000000555  aniso  0.0  0.0  $(1000*dt)
fix                      npt  all  npt  temp  900  900  0.10000000000000000555  aniso  0.0  0.0  1
timestep                 0.001
thermo                   10000
thermo_style             custom  step  temp  ke  pe  press

shell                    mkdir   Frenkel_0.0025_relax
dump                     1  all  custom  20000  ./Frenkel_0.0025_relax/dump_relax.atom.*  id type q mass x y z
dump_modify              1  element  O Th O Th

run                      100000
PPPM initialization ...
  G vector (1/distance) = 0.29908384
  grid = 40 240 40
  stencil order = 5
  estimated absolute RMS force accuracy = 0.00015569501
  estimated relative force accuracy = 1.081242e-05
  3d grid and FFT values/proc = 18225 7600
Step Temp KinEng PotEng Press
0          900     2093.898   -236416.57    8758.6064
Averages over the last 6 of 11 rows, steps 50000 to 100000:
Temp KinEng PotEng Press
897.917 2089.05 -234471 -237.363
Loop time of 836.908 on 52 procs for 100000 steps with 18000 atoms

shell                    mkdir  thermal_condu
write_data               ./thermal_condu/Frenkel_0.0025_relaxed.dat
System init for write_data ...
PPPM initialization ...
  G vector (1/distance) = 0.29862751
  grid = 40 240 40
  stencil order = 5
  estimated absolute RMS force accuracy = 0.00015940513
  estimated relative force accuracy = 1.1070073e-05
  3d grid and FFT values/proc = 18225 7600
