LAMMPS (29 Oct 2020)
#-------------------------
#
#This script is used to create different concentrations of vacancies in thorium dioxide
#By Ziqiang Wang on 07/03/2023
#
#-------------------------

clear
units                        metal
dimension                        3
boundary                     p p p
atom_style                   full
atom_modify                  map array

read_data                   perfect_relaxed.dat
Reading data file ...
  orthogonal box = (-0.27717828 -3.4472206 -0.27717828) to (27.617178 331.52722 27.617178)
  reading atoms ...
  18000 atoms
  reading velocities ...
  18000 velocities
Finding 1-2 1-3 1-4 neighbors ...
     0 = max # of 1-2 neighbors
     0 = max # of 1-3 neighbors
     0 = max # of 1-4 neighbors
     1 = max # of special neighbors

# randomly create vacancies in the relaxed perfect crystal
variable         vac_ratio       equal    0.015
region           sphere    sphere     13.67 69.1306 13.67 5.0  units box
group            sphere     region  sphere
45 atoms in group sphere
group            oxygen     id 8011 8012
2 atoms in group oxygen
group            thorium    id 7995 8019
2 atoms in group thorium
group            1          subtract sphere oxygen
43 atoms in group 1
group            cluster          union    1 thorium
45 atoms in group cluster
group            Th       type     2
6000 atoms in group Th
group            O        type     1
12000 atoms in group O
group            Th_group   intersect  cluster   Th
15 atoms in group Th_group
group            O_group    intersect  cluster   O
30 atoms in group O_group
delete_atoms     group      cluster
Deleted 45 atoms, new total = 17955
region           sphere     delete
group            sphere     delete
group            oxygen     delete
group            thorium    delete
group            1          delete
group            cluster    delete
group            Th         delete
group            O          delete
group            Th_group   delete
group            O_group    delete

region           sphere    sphere     13.67 108.211 13.67 5.0  units box
group            sphere     region  sphere
45 atoms in group sphere
group            oxygen     id 8431 8432
2 atoms in group oxygen
group            thorium    id 8415  8439
2 atoms in group thorium
group            1          subtract sphere oxygen
43 atoms in group 1
group            cluster          union    1 thorium
45 atoms in group cluster
group            Th       type     2
5985 atoms in group Th
group            O        type     1
11970 atoms in group O
group            Th_group   intersect  cluster   Th
15 atoms in group Th_group
group            O_group    intersect  cluster   O
30 atoms in group O_group
delete_atoms     group      cluster
Deleted 45 atoms, new total = 17910
region           sphere     delete
group            sphere     delete
group            oxygen     delete
group            thorium    delete
group            1          delete
group            cluster    delete
group            Th         delete
group            O          delete
group            Th_group   delete
group            O_group    delete

region           sphere    sphere     13.67 147.291 13.67 5.0  units box
group            sphere     region  sphere
45 atoms in group sphere
group            oxygen     id 8851 8852
2 atoms in group oxygen
group            thorium    id 8835 8859
2 atoms in group thorium
group            1          subtract sphere oxygen
43 atoms in group 1
group            cluster          union    1 thorium
45 atoms in group cluster
group            Th       type     2
5970 atoms in group Th
group            O        type     1
11940 atoms in group O
group            Th_group   intersect  cluster   Th
15 atoms in group Th_group
group            O_group    intersect  cluster   O
30 atoms in group O_group
delete_atoms     group      cluster
Deleted 45 atoms, new total = 17865
region           sphere     delete
group            sphere     delete
group            oxygen     delete
group            thorium    delete
group            1          delete
group            cluster    delete
group            Th         delete
group            O          delete
group            Th_group   delete
group            O_group    delete

region           sphere    sphere     13.67 191.955 13.67 5.0  units box
group            sphere     region  sphere
45 atoms in group sphere
group            oxygen     id 9331 9332
2 atoms in group oxygen
group            thorium    id 9315 9339
2 atoms in group thorium
group            1          subtract sphere oxygen
43 atoms in group 1
group            cluster          union    1 thorium
45 atoms in group cluster
group            Th       type     2
5955 atoms in group Th
group            O        type     1
11910 atoms in group O
group            Th_group   intersect  cluster   Th
15 atoms in group Th_group
group            O_group    intersect  cluster   O
30 atoms in group O_group
delete_atoms     group      cluster
Deleted 45 atoms, new total = 17820
region           sphere     delete
group            sphere     delete
group            oxygen     delete
group            thorium    delete
group            1          delete
group            cluster    delete
group            Th         delete
group            O          delete
group            Th_group   delete
group            O_group    delete

region           sphere    sphere     13.67 225.452 13.67 5.0  units box
group            sphere     region  sphere
45 atoms in group sphere
group            oxygen     id 9691 9692
2 atoms in group oxygen
group            thorium    id 9675 9699
2 atoms in group thorium
group            1          subtract sphere oxygen
43 atoms in group 1
group            cluster          union    1 thorium
45 atoms in group cluster
group            Th       type     2
5940 atoms in group Th
group            O        type     1
11880 atoms in group O
group            Th_group   intersect  cluster   Th
15 atoms in group Th_group
group            O_group    intersect  cluster   O
30 atoms in group O_group
delete_atoms     group      cluster
Deleted 45 atoms, new total = 17775
region           sphere     delete
group            sphere     delete
group            oxygen     delete
group            thorium    delete
group            1          delete
group            cluster    delete
group            Th         delete
group            O          delete
group            Th_group   delete
group            O_group    delete

region           sphere    sphere     13.67 264.532 13.67 5.0  units box
group            sphere     region  sphere
45 atoms in group sphere
group            oxygen     id 10111 10112
2 atoms in group oxygen
group            thorium    id 10095 10119
2 atoms in group thorium
group            1          subtract sphere oxygen
43 atoms in group 1
group            cluster          union    1 thorium
45 atoms in group cluster
group            Th       type     2
5925 atoms in group Th
group            O        type     1
11850 atoms in group O
group            Th_group   intersect  cluster   Th
15 atoms in group Th_group
group            O_group    intersect  cluster   O
30 atoms in group O_group
delete_atoms     group      cluster
Deleted 45 atoms, new total = 17730
region           sphere     delete
group            sphere     delete
group            oxygen     delete
group            thorium    delete
group            1          delete
group            cluster    delete
group            Th         delete
group            O          delete
group            Th_group   delete
group            O_group    delete

set                         type    1      charge   -1.1104
Setting atom values ...
  11820 settings made for charge
set                         type    2      charge    2.2208
Setting atom values ...
  5910 settings made for charge
kspace_style                pppm     1.0e-05
pair_style                  hybrid/overlay    coul/long   11.0  eam/alloy
pair_coeff                  * * coul/long
pair_coeff                  * * eam/alloy CeThUNpPuAmCmO.eam.alloy O Th
neighbor                    2.0  bin
neigh_modify                every  1  delay  0  check  yes

# fully relaxing the defect configuration at 0K
fix                box_relax  all  box/relax aniso 0.0 vmax 0.001
min_style          cg
minimize           1.0e-30 1.0e-30 10000 10000
PPPM initialization ...
  G vector (1/distance) = 0.29912852
  grid = 40 240 40
  stencil order = 5
  estimated absolute RMS force accuracy = 0.00015413022
  estimated relative force accuracy = 1.0703751e-05
  3d grid and FFT values/proc = 18225 7600
  update every 1 steps, delay 0 steps, check yes
Step Temp E_pair E_mol TotEng Press Volume
0            0   -232973.15            0   -232973.15   -1799.0252    260641.98
Loop time of 1.03329 on 52 procs for 33 steps with 17730 atoms

Minimization stats:
  Stopping criterion = linesearch alpha is zero
  Energy initial, next-to-last, final =
  Force two-norm initial, final = 571.25038 35.680941
  Force max component initial, final = 499.84263 23.912148
  Final line search alpha, max atom move = 6.7770484e-12 1.6205379e-10
  Iterations, force evaluations = 33 93

unfix              box_relax

# apply the temperature into the system and relaxing at the temperature of interest
reset_atom_ids
PPPM initialization ...
  G vector (1/distance) = 0.2991434
  grid = 40 240 40
  stencil order = 5
  estimated absolute RMS force accuracy = 0.00015398219
  estimated relative force accuracy = 1.0693471e-05
  3d grid and FFT values/proc = 18225 7600
Finding 1-2 1-3 1-4 neighbors ...
     0 = max # of 1-2 neighbors
     0 = max # of 1-3 neighbors
     0 = max # of 1-4 neighbors
     1 = max # of special neighbors
variable                    temp      equal    600
velocity                    all  create   600  4542  dist  gaussian  rot  yes  mom  yes
fix                         npt  all  npt  temp  600  600  $(100*dt) aniso  0.0  0.0  $(1000*dt)
fix                         npt  all  npt  temp  600  600  0.10000000000000000555 aniso  0.0  0.0  $(1000*dt)
fix                         npt  all  npt  temp  600  600  0.10000000000000000555 aniso  0.0  0.0  1

thermo                      10000
thermo_style                custom   step dt time atoms temp pe ke press vol

shell                       mkdir vac_0.015_600K
dump                        1  all  custom  10000  ./vac_0.015_600K/dump_relax.atom.* id type q x y z
dump_modify                 1  element  O  Th

run                         100000
PPPM initialization ...
  G vector (1/distance) = 0.2991434
  grid = 40 240 40
  stencil order = 5
  estimated absolute RMS force accuracy = 0.00015398219
  estimated relative force accuracy = 1.0693471e-05
  3d grid and FFT values/proc = 18225 7600
Step Dt Time Atoms Temp PotEng KinEng Press Volume
33        0.001            0    17730          600   -233068.24    1374.9919    5723.7425    260515.53
Averages over the last 6 of 12 rows, steps 60000 to 100033:
Dt Atoms Temp PotEng KinEng Press Volume
0.001 17730 598.623 -231696 1371.84 6.90458 264899
Loop time of 773.532 on 52 procs for 100000 steps with 17730 atoms

shell                       mkdir thermal_condu
write_data                  thermal_condu/vac_0.015_relaxed.dat
System init for write_data ...
PPPM initialization ...
  G vector (1/distance) = 0.29883935
  grid = 40 240 40
  stencil order = 5
  estimated absolute RMS force accuracy = 0.00015640553
  estimated relative force accuracy = 1.0861763e-05
  3d grid and FFT values/proc = 18225 7600
