LAMMPS (29 Oct 2020)
#-------------------------
#
#This script is used to create different concentrations of vacancies in thorium dioxide
#By Ziqiang Wang on 07/03/2023
#
#-------------------------

clear
units                        metal
dimension                        3
boundary                     p p p
atom_style                   full
atom_modify                  map array

read_data                   perfect_relaxed.dat
Reading data file ...
  orthogonal box = (-0.27717828 -3.4472206 -0.27717828) to (27.617178 331.52722 27.617178)
  reading atoms ...
  18000 atoms
  reading velocities ...
  18000 velocities
Finding 1-2 1-3 1-4 neighbors ...
     0 = max # of 1-2 neighbors
     0 = max # of 1-3 neighbors
     0 = max # of 1-4 neighbors
     1 = max # of special neighbors

set                         type    1      charge   -1.1104
Setting atom values ...
  12000 settings made for charge
set                         type    2      charge    2.2208
Setting atom values ...
  6000 settings made for charge

kspace_style                pppm     1.0e-05
pair_style                  hybrid/overlay    coul/long   11.0  eam/alloy
pair_coeff                  * * coul/long
pair_coeff                  * * eam/alloy CeThUNpPuAmCmO.eam.alloy O Th
neighbor                    2.0  bin
neigh_modify                every  1  delay  0  check  yes

# randomly create vacancies in the relaxed perfect crystal
variable         vac_ratio       equal    0.005
group Th_delete  id 1359  1310  4969 17473 13875 17416 12325 12315 12326 14797 11198 14800                      5473  5474  5476 15604 15613 12003   568   577 14967 16240 12638 12699                      7959 11500 11557  9925  9926  9916
30 atoms in group Th_delete
group O_delete   id 1303  1304  1305  1306  1308  1316 13812 13820 13819 13823 13818 13822                      8664  8672 12259 12260 12321 12322 11136 11144 11193 11194 11202 11204                      1812  1820  5469  5470  1878  1880 12006 12008 11952 11960 11947 11948                      14970 14972 14916 14924 14911 14912 12642 12644 12633 12634 12643 12647                     7903  7904  7902  7906  7896  7954  6264  6272  9921  9922  6318  6320
60 atoms in group O_delete

group              delete     union   Th_delete  O_delete
90 atoms in group delete
delete_atoms       group      delete
Deleted 90 atoms, new total = 17910

# fully relaxing the defect configuration at 0K
fix                box_relax  all  box/relax aniso 0.0 vmax 0.001
min_style          cg
minimize           1.0e-30 1.0e-30 10000 10000
PPPM initialization ...
  G vector (1/distance) = 0.299142
  grid = 40 240 40
  stencil order = 5
  estimated absolute RMS force accuracy = 0.00015485404
  estimated relative force accuracy = 1.0754018e-05
  3d grid and FFT values/proc = 18225 7600
  update every 1 steps, delay 0 steps, check yes
Step Temp E_pair E_mol TotEng Press Volume
0            0   -235355.65            0   -235355.65   -1083.0658    260641.98
Loop time of 0.820376 on 52 procs for 17 steps with 17910 atoms

Minimization stats:
  Stopping criterion = linesearch alpha is zero
  Energy initial, next-to-last, final =
  Force two-norm initial, final = 404.37333 153.52274
  Force max component initial, final = 379.39233 92.167595
  Final line search alpha, max atom move = 2.8325991e-13 2.6107385e-11
  Iterations, force evaluations = 17 74

unfix              box_relax

# apply the temperature into the system and relaxing at the temperature of interest
reset_atom_ids
PPPM initialization ...
  G vector (1/distance) = 0.29916109
  grid = 40 240 40
  stencil order = 5
  estimated absolute RMS force accuracy = 0.00015467471
  estimated relative force accuracy = 1.0741564e-05
  3d grid and FFT values/proc = 18225 7600
Finding 1-2 1-3 1-4 neighbors ...
     0 = max # of 1-2 neighbors
     0 = max # of 1-3 neighbors
     0 = max # of 1-4 neighbors
     1 = max # of special neighbors
variable                    temp      equal    600
velocity                    all  create   600  4542  dist  gaussian  rot  yes  mom  yes
fix                         npt  all  npt  temp  600  600  $(100*dt) aniso  0.0  0.0  $(1000*dt)
fix                         npt  all  npt  temp  600  600  0.10000000000000000555 aniso  0.0  0.0  $(1000*dt)
fix                         npt  all  npt  temp  600  600  0.10000000000000000555 aniso  0.0  0.0  1

thermo                      10000
thermo_style                custom   step dt time atoms temp pe ke press vol

shell                       mkdir vac_0.005_600K
dump                        1  all  custom  10000  ./vac_0.005_600K/dump_relax.atom.* id type q x y z
dump_modify                 1  element  O  Th

run                         100000
PPPM initialization ...
  G vector (1/distance) = 0.29916109
  grid = 40 240 40
  stencil order = 5
  estimated absolute RMS force accuracy = 0.00015467471
  estimated relative force accuracy = 1.0741564e-05
  3d grid and FFT values/proc = 18225 7600
Step Dt Time Atoms Temp PotEng KinEng Press Volume
17        0.001            0    17910          600   -235412.65     1388.952    6166.7239     260447.5
Averages over the last 6 of 12 rows, steps 60000 to 100017:
Dt Atoms Temp PotEng KinEng Press Volume
0.001 17910 601.573 -234180 1392.59 -252.14 265022
Loop time of 823.42 on 52 procs for 100000 steps with 17910 atoms

shell                       mkdir thermal_condu
write_data                  thermal_condu/vac_0.005_relaxed.dat
System init for write_data ...
PPPM initialization ...
  G vector (1/distance) = 0.29883711
  grid = 40 240 40
  stencil order = 5
  estimated absolute RMS force accuracy = 0.00015728919
  estimated relative force accuracy = 1.092313e-05
  3d grid and FFT values/proc = 18225 7600
