LAMMPS (29 Oct 2020)
#-------------------------
#
#This script is used to create different concentrations of vacancies in thorium dioxide
#By Ziqiang Wang on 07/03/2023
#
#-------------------------

clear
units                        metal
dimension                        3
boundary                     p p p
atom_style                   full
atom_modify                  map array

read_data                   perfect_relaxed.dat
Reading data file ...
  orthogonal box = (-0.27717828 -3.4472206 -0.27717828) to (27.617178 331.52722 27.617178)
  reading atoms ...
  18000 atoms
  reading velocities ...
  18000 velocities
Finding 1-2 1-3 1-4 neighbors ...
     0 = max # of 1-2 neighbors
     0 = max # of 1-3 neighbors
     0 = max # of 1-4 neighbors
     1 = max # of special neighbors

set                         type    1      charge   -1.1104
Setting atom values ...
  12000 settings made for charge
set                         type    2      charge    2.2208
Setting atom values ...
  6000 settings made for charge

kspace_style                pppm     1.0e-05
pair_style                  hybrid/overlay    coul/long   11.0  eam/alloy
pair_coeff                  * * coul/long
pair_coeff                  * * eam/alloy CeThUNpPuAmCmO.eam.alloy O Th
neighbor                    2.0  bin
neigh_modify                every  1  delay  0  check  yes

# randomly create vacancies in the relaxed perfect crystal
variable         vac_ratio       equal    0.005
group Th_delete  id 4779  8377 17714 17704 10346 10395  7069  7060  9196  9193  1023  4564                     5692  2091  6974  6975  1729  1660  7588  7647 17920 14319   409 14799                     3205  3196  9889  6230  5896  5953
30 atoms in group Th_delete
group O_delete   id 4723  4724  4716  4774 17709 17710 14106 14108 10341 10342 10339 10340                      3408  3416  3462  3464  5598  5600  5532  5540   967   968   966   970                      2094  2096  2035  2036  6969  6970  6919  6920 16068 16076 16062 16064                      3990  3992  7591  7592 14322 14324 14263 14264 14748 14756 14743 14744                      17544 17552 17598 17600  6228  6236  6225  6226  2298  2300  2292  2350
60 atoms in group O_delete
group              delete     union   Th_delete  O_delete
90 atoms in group delete
delete_atoms       group      delete
Deleted 90 atoms, new total = 17910

# fully relaxing the defect configuration at 0K
fix                box_relax  all  box/relax aniso 0.0 vmax 0.001
min_style          cg
minimize           1.0e-30 1.0e-30 10000 10000
PPPM initialization ...
  G vector (1/distance) = 0.299142
  grid = 40 240 40
  stencil order = 5
  estimated absolute RMS force accuracy = 0.00015485404
  estimated relative force accuracy = 1.0754018e-05
  3d grid and FFT values/proc = 11664 4000
  update every 1 steps, delay 0 steps, check yes
Step Temp E_pair E_mol TotEng Press Volume
0            0   -235336.81            0   -235336.81   -1202.6228    260641.98
Loop time of 0.975114 on 104 procs for 36 steps with 17910 atoms

Minimization stats:
  Stopping criterion = linesearch alpha is zero
  Energy initial, next-to-last, final =
  Force two-norm initial, final = 402.45969 59.718278
  Force max component initial, final = 356.27642 21.743790
  Final line search alpha, max atom move = 2.4734973e-12 5.3783205e-11
  Iterations, force evaluations = 36 98

unfix              box_relax

# apply the temperature into the system and relaxing at the temperature of interest
reset_atom_ids
PPPM initialization ...
  G vector (1/distance) = 0.29915523
  grid = 40 240 40
  stencil order = 5
  estimated absolute RMS force accuracy = 0.00015472235
  estimated relative force accuracy = 1.0744873e-05
  3d grid and FFT values/proc = 11664 4000
Finding 1-2 1-3 1-4 neighbors ...
     0 = max # of 1-2 neighbors
     0 = max # of 1-3 neighbors
     0 = max # of 1-4 neighbors
     1 = max # of special neighbors
variable                    temp      equal    600
velocity                    all  create   600  4542  dist  gaussian  rot  yes  mom  yes
fix                         npt  all  npt  temp  600  600  $(100*dt) aniso  0.0  0.0  $(1000*dt)
fix                         npt  all  npt  temp  600  600  0.10000000000000000555 aniso  0.0  0.0  $(1000*dt)
fix                         npt  all  npt  temp  600  600  0.10000000000000000555 aniso  0.0  0.0  1

thermo                      10000
thermo_style                custom   step dt time atoms temp pe ke press vol

shell                       mkdir vac_0.005_600K
dump                        1  all  custom  10000  ./vac_0.005_600K/dump_relax.atom.* id type q x y z
dump_modify                 1  element  O  Th

run                         100000
PPPM initialization ...
  G vector (1/distance) = 0.29915523
  grid = 40 240 40
  stencil order = 5
  estimated absolute RMS force accuracy = 0.00015472235
  estimated relative force accuracy = 1.0744873e-05
  3d grid and FFT values/proc = 11664 4000
Step Dt Time Atoms Temp PotEng KinEng Press Volume
36        0.001            0    17910          600   -235439.91     1388.952    5810.8001    260528.85
Averages over the last 6 of 12 rows, steps 60000 to 100036:
Dt Atoms Temp PotEng KinEng Press Volume
0.001 17910 600.848 -234147 1390.91 539.322 264963
Loop time of 839.741 on 104 procs for 100000 steps with 17910 atoms

shell                       mkdir thermal_condu
write_data                  thermal_condu/vac_0.005_relaxed.dat
System init for write_data ...
PPPM initialization ...
  G vector (1/distance) = 0.29884675
  grid = 40 240 40
  stencil order = 5
  estimated absolute RMS force accuracy = 0.00015721093
  estimated relative force accuracy = 1.0917695e-05
  3d grid and FFT values/proc = 11664 4000
