LAMMPS (29 Oct 2020)
#-------------------------
#
#This script is used to create different concentrations of antisites in uranium dioxide
#By Ziqiang Wang on 02/03/2022
#
#-------------------------

clear
units                        metal
dimension                        3
boundary                     p p p
atom_style                   full
atom_modify                  map array

#Firstly create a simple cubic
variable                     numx       equal     5
variable                     numy       equal     60
variable                     numz       equal     5
variable                     a         equal     5.5788   #The lattice constant of Th element at 300K
variable                     b         equal     0.25
variable                     c         equal     0.75
lattice                      custom   1   a1  $a 0.0 0.0 a2 0.0 $a 0.0 a3 0.0 0.0 $a                                       basis  $b $b $b basis $c $b $b basis $c $b $c                                       basis  $b $b $c basis $b $c $b basis $c $c $b                                       basis  $c $c $c basis $b $c $c
lattice                      custom   1   a1  5.5788 0.0 0.0 a2 0.0 $a 0.0 a3 0.0 0.0 $a                                       basis  $b $b $b basis $c $b $b basis $c $b $c                                       basis  $b $b $c basis $b $c $b basis $c $c $b                                       basis  $c $c $c basis $b $c $c
lattice                      custom   1   a1  5.5788 0.0 0.0 a2 0.0 5.5788 0.0 a3 0.0 0.0 $a                                       basis  $b $b $b basis $c $b $b basis $c $b $c                                       basis  $b $b $c basis $b $c $b basis $c $c $b                                       basis  $c $c $c basis $b $c $c
lattice                      custom   1   a1  5.5788 0.0 0.0 a2 0.0 5.5788 0.0 a3 0.0 0.0 5.5788                                       basis  $b $b $b basis $c $b $b basis $c $b $c                                       basis  $b $b $c basis $b $c $b basis $c $c $b                                       basis  $c $c $c basis $b $c $c
lattice                      custom   1   a1  5.5788 0.0 0.0 a2 0.0 5.5788 0.0 a3 0.0 0.0 5.5788                                       basis  0.25 $b $b basis $c $b $b basis $c $b $c                                       basis  $b $b $c basis $b $c $b basis $c $c $b                                       basis  $c $c $c basis $b $c $c
lattice                      custom   1   a1  5.5788 0.0 0.0 a2 0.0 5.5788 0.0 a3 0.0 0.0 5.5788                                       basis  0.25 0.25 $b basis $c $b $b basis $c $b $c                                       basis  $b $b $c basis $b $c $b basis $c $c $b                                       basis  $c $c $c basis $b $c $c
lattice                      custom   1   a1  5.5788 0.0 0.0 a2 0.0 5.5788 0.0 a3 0.0 0.0 5.5788                                       basis  0.25 0.25 0.25 basis $c $b $b basis $c $b $c                                       basis  $b $b $c basis $b $c $b basis $c $c $b                                       basis  $c $c $c basis $b $c $c
lattice                      custom   1   a1  5.5788 0.0 0.0 a2 0.0 5.5788 0.0 a3 0.0 0.0 5.5788                                       basis  0.25 0.25 0.25 basis 0.75 $b $b basis $c $b $c                                       basis  $b $b $c basis $b $c $b basis $c $c $b                                       basis  $c $c $c basis $b $c $c
lattice                      custom   1   a1  5.5788 0.0 0.0 a2 0.0 5.5788 0.0 a3 0.0 0.0 5.5788                                       basis  0.25 0.25 0.25 basis 0.75 0.25 $b basis $c $b $c                                       basis  $b $b $c basis $b $c $b basis $c $c $b                                       basis  $c $c $c basis $b $c $c
lattice                      custom   1   a1  5.5788 0.0 0.0 a2 0.0 5.5788 0.0 a3 0.0 0.0 5.5788                                       basis  0.25 0.25 0.25 basis 0.75 0.25 0.25 basis $c $b $c                                       basis  $b $b $c basis $b $c $b basis $c $c $b                                       basis  $c $c $c basis $b $c $c
lattice                      custom   1   a1  5.5788 0.0 0.0 a2 0.0 5.5788 0.0 a3 0.0 0.0 5.5788                                       basis  0.25 0.25 0.25 basis 0.75 0.25 0.25 basis 0.75 $b $c                                       basis  $b $b $c basis $b $c $b basis $c $c $b                                       basis  $c $c $c basis $b $c $c
lattice                      custom   1   a1  5.5788 0.0 0.0 a2 0.0 5.5788 0.0 a3 0.0 0.0 5.5788                                       basis  0.25 0.25 0.25 basis 0.75 0.25 0.25 basis 0.75 0.25 $c                                       basis  $b $b $c basis $b $c $b basis $c $c $b                                       basis  $c $c $c basis $b $c $c
lattice                      custom   1   a1  5.5788 0.0 0.0 a2 0.0 5.5788 0.0 a3 0.0 0.0 5.5788                                       basis  0.25 0.25 0.25 basis 0.75 0.25 0.25 basis 0.75 0.25 0.75                                       basis  $b $b $c basis $b $c $b basis $c $c $b                                       basis  $c $c $c basis $b $c $c
lattice                      custom   1   a1  5.5788 0.0 0.0 a2 0.0 5.5788 0.0 a3 0.0 0.0 5.5788                                       basis  0.25 0.25 0.25 basis 0.75 0.25 0.25 basis 0.75 0.25 0.75                                       basis  0.25 $b $c basis $b $c $b basis $c $c $b                                       basis  $c $c $c basis $b $c $c
lattice                      custom   1   a1  5.5788 0.0 0.0 a2 0.0 5.5788 0.0 a3 0.0 0.0 5.5788                                       basis  0.25 0.25 0.25 basis 0.75 0.25 0.25 basis 0.75 0.25 0.75                                       basis  0.25 0.25 $c basis $b $c $b basis $c $c $b                                       basis  $c $c $c basis $b $c $c
lattice                      custom   1   a1  5.5788 0.0 0.0 a2 0.0 5.5788 0.0 a3 0.0 0.0 5.5788                                       basis  0.25 0.25 0.25 basis 0.75 0.25 0.25 basis 0.75 0.25 0.75                                       basis  0.25 0.25 0.75 basis $b $c $b basis $c $c $b                                       basis  $c $c $c basis $b $c $c
lattice                      custom   1   a1  5.5788 0.0 0.0 a2 0.0 5.5788 0.0 a3 0.0 0.0 5.5788                                       basis  0.25 0.25 0.25 basis 0.75 0.25 0.25 basis 0.75 0.25 0.75                                       basis  0.25 0.25 0.75 basis 0.25 $c $b basis $c $c $b                                       basis  $c $c $c basis $b $c $c
lattice                      custom   1   a1  5.5788 0.0 0.0 a2 0.0 5.5788 0.0 a3 0.0 0.0 5.5788                                       basis  0.25 0.25 0.25 basis 0.75 0.25 0.25 basis 0.75 0.25 0.75                                       basis  0.25 0.25 0.75 basis 0.25 0.75 $b basis $c $c $b                                       basis  $c $c $c basis $b $c $c
lattice                      custom   1   a1  5.5788 0.0 0.0 a2 0.0 5.5788 0.0 a3 0.0 0.0 5.5788                                       basis  0.25 0.25 0.25 basis 0.75 0.25 0.25 basis 0.75 0.25 0.75                                       basis  0.25 0.25 0.75 basis 0.25 0.75 0.25 basis $c $c $b                                       basis  $c $c $c basis $b $c $c
lattice                      custom   1   a1  5.5788 0.0 0.0 a2 0.0 5.5788 0.0 a3 0.0 0.0 5.5788                                       basis  0.25 0.25 0.25 basis 0.75 0.25 0.25 basis 0.75 0.25 0.75                                       basis  0.25 0.25 0.75 basis 0.25 0.75 0.25 basis 0.75 $c $b                                       basis  $c $c $c basis $b $c $c
lattice                      custom   1   a1  5.5788 0.0 0.0 a2 0.0 5.5788 0.0 a3 0.0 0.0 5.5788                                       basis  0.25 0.25 0.25 basis 0.75 0.25 0.25 basis 0.75 0.25 0.75                                       basis  0.25 0.25 0.75 basis 0.25 0.75 0.25 basis 0.75 0.75 $b                                       basis  $c $c $c basis $b $c $c
lattice                      custom   1   a1  5.5788 0.0 0.0 a2 0.0 5.5788 0.0 a3 0.0 0.0 5.5788                                       basis  0.25 0.25 0.25 basis 0.75 0.25 0.25 basis 0.75 0.25 0.75                                       basis  0.25 0.25 0.75 basis 0.25 0.75 0.25 basis 0.75 0.75 0.25                                       basis  $c $c $c basis $b $c $c
lattice                      custom   1   a1  5.5788 0.0 0.0 a2 0.0 5.5788 0.0 a3 0.0 0.0 5.5788                                       basis  0.25 0.25 0.25 basis 0.75 0.25 0.25 basis 0.75 0.25 0.75                                       basis  0.25 0.25 0.75 basis 0.25 0.75 0.25 basis 0.75 0.75 0.25                                       basis  0.75 $c $c basis $b $c $c
lattice                      custom   1   a1  5.5788 0.0 0.0 a2 0.0 5.5788 0.0 a3 0.0 0.0 5.5788                                       basis  0.25 0.25 0.25 basis 0.75 0.25 0.25 basis 0.75 0.25 0.75                                       basis  0.25 0.25 0.75 basis 0.25 0.75 0.25 basis 0.75 0.75 0.25                                       basis  0.75 0.75 $c basis $b $c $c
lattice                      custom   1   a1  5.5788 0.0 0.0 a2 0.0 5.5788 0.0 a3 0.0 0.0 5.5788                                       basis  0.25 0.25 0.25 basis 0.75 0.25 0.25 basis 0.75 0.25 0.75                                       basis  0.25 0.25 0.75 basis 0.25 0.75 0.25 basis 0.75 0.75 0.25                                       basis  0.75 0.75 0.75 basis $b $c $c
lattice                      custom   1   a1  5.5788 0.0 0.0 a2 0.0 5.5788 0.0 a3 0.0 0.0 5.5788                                       basis  0.25 0.25 0.25 basis 0.75 0.25 0.25 basis 0.75 0.25 0.75                                       basis  0.25 0.25 0.75 basis 0.25 0.75 0.25 basis 0.75 0.75 0.25                                       basis  0.75 0.75 0.75 basis 0.25 $c $c
lattice                      custom   1   a1  5.5788 0.0 0.0 a2 0.0 5.5788 0.0 a3 0.0 0.0 5.5788                                       basis  0.25 0.25 0.25 basis 0.75 0.25 0.25 basis 0.75 0.25 0.75                                       basis  0.25 0.25 0.75 basis 0.25 0.75 0.25 basis 0.75 0.75 0.25                                       basis  0.75 0.75 0.75 basis 0.25 0.75 $c
lattice                      custom   1   a1  5.5788 0.0 0.0 a2 0.0 5.5788 0.0 a3 0.0 0.0 5.5788                                       basis  0.25 0.25 0.25 basis 0.75 0.25 0.25 basis 0.75 0.25 0.75                                       basis  0.25 0.25 0.75 basis 0.25 0.75 0.25 basis 0.75 0.75 0.25                                       basis  0.75 0.75 0.75 basis 0.25 0.75 0.75
Lattice spacing in x,y,z = 5.5788000 5.5788000 5.5788000
region                       sc    block  0  5  0  60  0  5  units  lattice
create_box                   4     sc
Created orthogonal box = (0.0000000 0.0000000 0.0000000) to (27.894000 334.72800 27.894000)
change_box                   all   triclinic
Changing box ...
  triclinic box = (0.0000000 0.0000000 0.0000000) to (27.894000 334.72800 27.894000) with tilt (0.0000000 0.0000000 0.0000000)
create_atoms                 1     region   sc
Created 12000 atoms

#Secondly create a fcc center cubic
lattice                     fcc    $a
lattice                     fcc    5.5788
Lattice spacing in x,y,z = 5.5788000 5.5788000 5.5788000
region                      fcc    block   0  5  0  60  0  5  units  lattice
create_atoms                 2     region   fcc
Created 6000 atoms

mass                        1   15.99
mass                        2   232.038
mass                        3   15.99
mass                        4   232.038

#write_data                  fluorite.dat
variable                    ratio     equal   0.0025
variable                    ntot      equal   5*60*5*12
variable                    oxytot    equal   18000*2/3
variable                    uratot    equal   18000*1/3

variable                    antinum   equal   18000*0.0025
variable                    oxyanti   equal   45/2
variable                    uraanti   equal   45/2
variable                    oratio    equal   22.5/12000
variable                    uratio    equal   22.5/6000

group                       oxygen    type    1
12000 atoms in group oxygen
group                       uranium   type    2
6000 atoms in group uranium
set                         group    oxygen   type/ratio   3   0.001875   45618
Setting atom values ...
  22 settings made for type/ratio
set                         group    uranium  type/ratio   4   0.00375   456874
Setting atom values ...
  22 settings made for type/ratio

group                       anti_oxygen     type    3
22 atoms in group anti_oxygen
group                       anti_uranium    type    4
22 atoms in group anti_uranium

set                         group   anti_oxygen   type    2
Setting atom values ...
  22 settings made for type
set                         group   anti_uranium  type    1
Setting atom values ...
  22 settings made for type

set                         type    1      charge   -1.1104
Setting atom values ...
  12000 settings made for charge
set                         type    2      charge    2.2208
Setting atom values ...
  6000 settings made for charge

kspace_style                pppm     1.0e-05
pair_style                  hybrid/overlay    coul/long   11.0  eam/alloy
pair_coeff                  * * coul/long
pair_coeff                  * * eam/alloy CeThUNpPuAmCmO.eam.alloy O Th O Th
neighbor                    2.0  bin
neigh_modify                every  1  delay  0  check  yes

fix                         box_relax  all  box/relax  aniso  0.0  vmax  0.001
min_style                   cg
minimize                    1.0e-30 1.0e-30 10000 10000
PPPM initialization ...
  G vector (1/distance) = 0.29916851
  grid = 40 240 40
  stencil order = 5
  estimated absolute RMS force accuracy = 0.00015502622
  estimated relative force accuracy = 1.0765975e-05
  3d grid and FFT values/proc = 18225 7600
  update every 1 steps, delay 0 steps, check yes
Step Temp E_pair E_mol TotEng Press Volume
0            0   -232429.76            0   -232429.76    14303.058    260443.57
Loop time of 13.3547 on 52 procs for 829 steps with 18000 atoms

Minimization stats:
  Stopping criterion = linesearch alpha is zero
  Energy initial, next-to-last, final =
  Force two-norm initial, final = 5386.2722 45.547724
  Force max component initial, final = 3798.0178 23.180158
  Final line search alpha, max atom move = 4.4688628e-12 1.0358894e-10
  Iterations, force evaluations = 829 1162

unfix                       box_relax
reset_timestep              0

#variable                    latt      equal    (v_lattx+v_latty+v_lattz)/3
variable                    temp         equal     1200.0
velocity                    all  create   1200  45362  dist  gaussian  rot  yes  mom  yes
fix                         npt  all  npt  temp  1200  1200   $(100*dt) aniso  0.0  0.0  $(1000*dt)
fix                         npt  all  npt  temp  1200  1200   0.10000000000000000555 aniso  0.0  0.0  $(1000*dt)
fix                         npt  all  npt  temp  1200  1200   0.10000000000000000555 aniso  0.0  0.0  1

thermo                      50000
thermo_style                custom   step dt time atoms temp pe ke press vol
timestep                    0.001

shell                       mkdir antisite_1200K_0.0025
dump                        1  all  custom  50000  ./antisite_1200K_0.0025/dump_relax.atom.* id type x y z
dump_modify                 1  element  O  Th  O  Th

run                         500000
PPPM initialization ...
  G vector (1/distance) = 0.29898277
  grid = 40 240 40
  stencil order = 5
  estimated absolute RMS force accuracy = 0.00015628065
  estimated relative force accuracy = 1.0853091e-05
  3d grid and FFT values/proc = 18225 7600
Step Dt Time Atoms Temp PotEng KinEng Press Volume
0        0.001            0    18000         1200   -235528.02     2791.864    11442.214    263794.26
Averages over the last 6 of 11 rows, steps 250000 to 500000:
Dt Atoms Temp PotEng KinEng Press Volume
0.001 18000 1202.31 -233647 2797.25 316.046 270604
Loop time of 4363.27 on 52 procs for 500000 steps with 18000 atoms

shell                       mkdir thermal_condu
write_data                  ./thermal_condu/antisite_0.0025_relaxed.dat
System init for write_data ...
PPPM initialization ...
  G vector (1/distance) = 0.29845958
  grid = 40 240 40
  stencil order = 5
  estimated absolute RMS force accuracy = 0.00016079774
  estimated relative force accuracy = 1.1166785e-05
  3d grid and FFT values/proc = 18225 7600
