LAMMPS (29 Oct 2020)
#-------------------------
#
#This script is used to create different concentrations of vacancies in thorium dioxide
#By Ziqiang Wang on 07/03/2023
#
#-------------------------

clear
units                        metal
dimension                        3
boundary                     p p p
atom_style                   full
atom_modify                  map array

read_data                   perfect_relaxed.dat
Reading data file ...
  orthogonal box = (-0.27717828 -3.4472206 -0.27717828) to (27.617178 331.52722 27.617178)
  reading atoms ...
  18000 atoms
  reading velocities ...
  18000 velocities
Finding 1-2 1-3 1-4 neighbors ...
     0 = max # of 1-2 neighbors
     0 = max # of 1-3 neighbors
     0 = max # of 1-4 neighbors
     1 = max # of special neighbors

# randomly create vacancies in the relaxed perfect crystal
variable         vac_ratio       equal    0.02
region           sphere    sphere     13.67 52.3819 13.67 7.0  units box
group            sphere     region  sphere
99 atoms in group sphere
group            oxygen     id 7890 7846 7788 7894
4 atoms in group oxygen
group            thorium    id 11365 7885 11366 11426 11485 7897 11378 11438 11497 11427 7887 11377 7767
13 atoms in group thorium
group            1          subtract sphere thorium
86 atoms in group 1
group            cluster          union    1 oxygen
90 atoms in group cluster
group            Th       type     2
6000 atoms in group Th
group            O        type     1
12000 atoms in group O
group            Th_group   intersect  cluster   Th
30 atoms in group Th_group
group            O_group    intersect  cluster   O
60 atoms in group O_group
delete_atoms     group      cluster
Deleted 90 atoms, new total = 17910
region           sphere     delete
group            sphere     delete
group            oxygen     delete
group            thorium    delete
group            1          delete
group            cluster    delete
group            Th         delete
group            O          delete
group            Th_group   delete
group            O_group    delete

region           sphere    sphere     13.67 119.377 13.67 7.0  units box
group            sphere     region  sphere
99 atoms in group sphere
group            oxygen     id 8610 8566 8508 8614
4 atoms in group oxygen
group            thorium    id 8605 12085 12086 12205 12146 12147 8607 8617 12098 12217 12158  12097 8487
13 atoms in group thorium
group            1          subtract sphere thorium
86 atoms in group 1
group            cluster          union    1 oxygen
90 atoms in group cluster
group            Th       type     2
5970 atoms in group Th
group            O        type     1
11940 atoms in group O
group            Th_group   intersect  cluster   Th
30 atoms in group Th_group
group            O_group    intersect  cluster   O
60 atoms in group O_group
delete_atoms     group      cluster
Deleted 90 atoms, new total = 17820
region           sphere     delete
group            sphere     delete
group            oxygen     delete
group            thorium    delete
group            1          delete
group            cluster    delete
group            Th         delete
group            O          delete
group            Th_group   delete
group            O_group    delete

region           sphere    sphere     13.67 214.286 13.67 7.0  units box
group            sphere     region  sphere
99 atoms in group sphere
group            oxygen     id 9630 9586 9528 9634
4 atoms in group oxygen
group            thorium    id 9625 13105 13106 13166 13225 13167 9627 9637 13118 13178 13237 9507 13117
13 atoms in group thorium
group            1          subtract sphere thorium
86 atoms in group 1
group            cluster          union    1 oxygen
90 atoms in group cluster
group            Th       type     2
5940 atoms in group Th
group            O        type     1
11880 atoms in group O
group            Th_group   intersect  cluster   Th
30 atoms in group Th_group
group            O_group    intersect  cluster   O
60 atoms in group O_group
delete_atoms     group      cluster
Deleted 90 atoms, new total = 17730
region           sphere     delete
group            sphere     delete
group            oxygen     delete
group            thorium    delete
group            1          delete
group            cluster    delete
group            Th         delete
group            O          delete
group            Th_group   delete
group            O_group    delete

region           sphere    sphere     13.67 275.698 13.67 7.0  units box
group            sphere     region  sphere
99 atoms in group sphere
group            oxygen     id 10290 10246 10188 10294
4 atoms in group oxygen
group            thorium    id 13765 13766 13826 10285 13885 13778 13838 13827 10297 13897 10287 10167 13777
13 atoms in group thorium
group            1          subtract sphere thorium
86 atoms in group 1
group            cluster          union    1 oxygen
90 atoms in group cluster
group            Th       type     2
5910 atoms in group Th
group            O        type     1
11820 atoms in group O
group            Th_group   intersect  cluster   Th
30 atoms in group Th_group
group            O_group    intersect  cluster   O
60 atoms in group O_group
delete_atoms     group      cluster
Deleted 90 atoms, new total = 17640
region           sphere     delete
group            sphere     delete
group            oxygen     delete
group            thorium    delete
group            1          delete
group            cluster    delete
group            Th         delete
group            O          delete
group            Th_group   delete
group            O_group    delete

set                         type    1      charge   -1.1104
Setting atom values ...
  11760 settings made for charge
set                         type    2      charge    2.2208
Setting atom values ...
  5880 settings made for charge
kspace_style                pppm     1.0e-05
pair_style                  hybrid/overlay    coul/long   11.0  eam/alloy
pair_coeff                  * * coul/long
pair_coeff                  * * eam/alloy CeThUNpPuAmCmO.eam.alloy O Th
neighbor                    2.0  bin
neigh_modify                every  1  delay  0  check  yes

# fully relaxing the defect configuration at 0K
fix                box_relax  all  box/relax aniso 0.0 vmax 0.001
min_style          cg
minimize           1.0e-30 1.0e-30 10000 10000
PPPM initialization ...
  G vector (1/distance) = 0.29912164
  grid = 40 240 40
  stencil order = 5
  estimated absolute RMS force accuracy = 0.00015376724
  estimated relative force accuracy = 1.0678544e-05
  3d grid and FFT values/proc = 18225 7600
  update every 1 steps, delay 0 steps, check yes
Step Temp E_pair E_mol TotEng Press Volume
0            0   -230816.64            0   -230816.64    -654.5335    260641.98
Loop time of 2.1244 on 52 procs for 103 steps with 17640 atoms

Minimization stats:
  Stopping criterion = linesearch alpha is zero
  Energy initial, next-to-last, final =
  Force two-norm initial, final = 358.01071 130.58001
  Force max component initial, final = 259.70829 105.61497
  Final line search alpha, max atom move = 4.4417923e-13 4.6911973e-11
  Iterations, force evaluations = 103 192

unfix              box_relax

# apply the temperature into the system and relaxing at the temperature of interest
reset_atom_ids
PPPM initialization ...
  G vector (1/distance) = 0.29907619
  grid = 40 240 40
  stencil order = 5
  estimated absolute RMS force accuracy = 0.00015411336
  estimated relative force accuracy = 1.0702581e-05
  3d grid and FFT values/proc = 18225 7600
Finding 1-2 1-3 1-4 neighbors ...
     0 = max # of 1-2 neighbors
     0 = max # of 1-3 neighbors
     0 = max # of 1-4 neighbors
     1 = max # of special neighbors
variable                    temp      equal    600
velocity                    all  create   600  4542  dist  gaussian  rot  yes  mom  yes
fix                         npt  all  npt  temp  600  600  $(100*dt) aniso  0.0  0.0  $(1000*dt)
fix                         npt  all  npt  temp  600  600  0.10000000000000000555 aniso  0.0  0.0  $(1000*dt)
fix                         npt  all  npt  temp  600  600  0.10000000000000000555 aniso  0.0  0.0  1

thermo                      20000
thermo_style                custom   step dt time atoms temp pe ke press vol

shell                       mkdir vac_0.02_600K
dump                        1  all  custom  20000  ./vac_0.02_600K/dump_relax.atom.* id type q x y z
dump_modify                 1  element  O  Th

run                         100000
PPPM initialization ...
  G vector (1/distance) = 0.29907619
  grid = 40 240 40
  stencil order = 5
  estimated absolute RMS force accuracy = 0.00015411336
  estimated relative force accuracy = 1.0702581e-05
  3d grid and FFT values/proc = 18225 7600
Step Dt Time Atoms Temp PotEng KinEng Press Volume
103        0.001            0    17640          600   -231440.24    1368.0118    5168.7263    261339.72
Loop time of 829.22 on 52 procs for 100000 steps with 17640 atoms

shell                       mkdir thermal_condu
write_data                  thermal_condu/vac_0.02_relaxed.dat
System init for write_data ...
PPPM initialization ...
  G vector (1/distance) = 0.29881614
  grid = 40 240 40
  stencil order = 5
  estimated absolute RMS force accuracy = 0.00015618178
  estimated relative force accuracy = 1.0846224e-05
  3d grid and FFT values/proc = 18225 7600
