LAMMPS (29 Oct 2020)
#-------------------------
#
#This script is used to create different concentrations of vacancies in thorium dioxide
#By Ziqiang Wang on 07/03/2023
#
#-------------------------

clear
units                        metal
dimension                        3
boundary                     p p p
atom_style                   full
atom_modify                  map array

read_data                   ThO2_unitcell.dat
Reading data file ...
  orthogonal box = (0.0000000 0.0000000 0.0000000) to (5.4680000 5.4680000 5.4680000)
  reading atoms ...
  12 atoms
Finding 1-2 1-3 1-4 neighbors ...
     0 = max # of 1-2 neighbors
     0 = max # of 1-3 neighbors
     0 = max # of 1-4 neighbors
     1 = max # of special neighbors
replicate                   5  90  5
Replicating atoms ...
  orthogonal box = (0.0000000 0.0000000 0.0000000) to (27.340000 492.12000 27.340000)
  27000 atoms
Finding 1-2 1-3 1-4 neighbors ...
     0 = max # of 1-2 neighbors
     0 = max # of 1-3 neighbors
     0 = max # of 1-4 neighbors
     1 = max # of special neighbors
  replicate CPU = 0.009 seconds

set                         type    1      charge   -1.1104
Setting atom values ...
  18000 settings made for charge
set                         type    2      charge    2.2208
Setting atom values ...
  9000 settings made for charge

kspace_style                pppm     1.0e-05
pair_style                  hybrid/overlay    coul/long   11.0  eam/alloy
pair_coeff                  * * coul/long
pair_coeff                  * * eam/alloy CeThUNpPuAmCmO.eam.alloy O Th Th O
neighbor                    2.0  bin
neigh_modify                every  1  delay  0  check  yes

# Fully relaxing the perfect crystal at 0K
fix                         box_relax  all  box/relax  aniso  0.0  vmax  0.001
min_style                   cg
minimize                    1.0e-30 1.0e-30 10000 10000
PPPM initialization ...
  G vector (1/distance) = 0.30030753
  grid = 40 360 40
  stencil order = 5
  estimated absolute RMS force accuracy = 0.00014579008
  estimated relative force accuracy = 1.0124561e-05
  3d grid and FFT values/proc = 26649 11200
  update every 1 steps, delay 0 steps, check yes
Step Temp E_pair E_mol TotEng Press Volume
0            0   -354493.15            0   -354493.15    136383.34    367847.69
Loop time of 3.72672 on 52 procs for 28 steps with 27000 atoms

Minimization stats:
  Stopping criterion = linesearch alpha is zero
  Energy initial, next-to-last, final =
  Force two-norm initial, final = 54234.999 200.85405
  Force max component initial, final = 31313.286 164.35619
  Final line search alpha, max atom move = 1.8132766e-13 2.9802322e-11
  Iterations, force evaluations = 28 240

unfix                       box_relax
reset_timestep              0
# randomly create vacancies in the relaxed perfect crystal
group                       thorium     type  2
9000 atoms in group thorium
group                       oxygen      type  1
18000 atoms in group oxygen

variable           vac_ratio   equal    0
variable           tot         equal    count(all)
variable           tot_vac     equal    round(27000*0)
variable           th_vac      equal    round(0*0.333333)
variable           oxy_vac     equal    2*0
set                group    thorium   type/subset  3   0  1252
Setting atom values ...
  0 settings made for type/subset
set                group    oxygen    type/subset  4   0 45558
Setting atom values ...
  0 settings made for type/subset

group              delete     type    3 4
0 atoms in group delete
delete_atoms       group      delete
Deleted 0 atoms, new total = 27000

# fully relaxing the defect configuration at 0K
fix                box_relax  all  box/relax aniso 0.0 vmax 0.001
min_style          cg
minimize           1.0e-30 1.0e-30 10000 10000
PPPM initialization ...
  G vector (1/distance) = 0.29925163
  grid = 40 360 40
  stencil order = 5
  estimated absolute RMS force accuracy = 0.00015387579
  estimated relative force accuracy = 1.0686082e-05
  3d grid and FFT values/proc = 26649 11200
Step Temp E_pair E_mol TotEng Press Volume
0            0    -355419.4            0    -355419.4   -4.0502693    390950.83
Loop time of 0.777201 on 52 procs for 1 steps with 27000 atoms

Minimization stats:
  Stopping criterion = linesearch alpha is zero
  Energy initial, next-to-last, final =
  Force two-norm initial, final = 205.13348 205.13348
  Force max component initial, final = 168.47327 168.47327
  Final line search alpha, max atom move = 1.7689644e-13 2.9802322e-11
  Iterations, force evaluations = 1 50

unfix              box_relax
reset_timestep     0

# apply the temperature into the system and relaxing system at the temperature of interest
reset_atom_ids
PPPM initialization ...
  G vector (1/distance) = 0.29925163
  grid = 40 360 40
  stencil order = 5
  estimated absolute RMS force accuracy = 0.00015387579
  estimated relative force accuracy = 1.0686082e-05
  3d grid and FFT values/proc = 26649 11200
Finding 1-2 1-3 1-4 neighbors ...
     0 = max # of 1-2 neighbors
     0 = max # of 1-3 neighbors
     0 = max # of 1-4 neighbors
     1 = max # of special neighbors
variable                    temp      equal    600
velocity                    all  create   600  47788  dist  gaussian  rot  yes  mom  yes
fix                         npt  all  npt  temp  600  600  $(100*dt) aniso  0.0  0.0  $(1000*dt)
fix                         npt  all  npt  temp  600  600  0.10000000000000000555 aniso  0.0  0.0  $(1000*dt)
fix                         npt  all  npt  temp  600  600  0.10000000000000000555 aniso  0.0  0.0  1

thermo                      10000
thermo_style                custom   step dt time atoms temp pe ke press vol

shell                       mkdir vac_0_600K
dump                        1  all  custom  10000  ./vac_0_600K/dump_relax.atom.* id type q x y z
dump_modify                 1  element  O  Th Th O

run                         100000
PPPM initialization ...
  G vector (1/distance) = 0.29925163
  grid = 40 360 40
  stencil order = 5
  estimated absolute RMS force accuracy = 0.00015387579
  estimated relative force accuracy = 1.0686082e-05
  3d grid and FFT values/proc = 26649 11200
Step Dt Time Atoms Temp PotEng KinEng Press Volume
0        0.001            0    27000          600    -355419.4    2093.9368    5716.7994    390950.83
Averages over the last 6 of 11 rows, steps 50000 to 100000:
Dt Atoms Temp PotEng KinEng Press Volume
0.001 27000 599.215 -353255 2091.2 -318.493 397378
Loop time of 1180.44 on 52 procs for 100000 steps with 27000 atoms

shell                       mkdir thermal_condu
write_data                  thermal_condu/vac_0_relaxed.dat
System init for write_data ...
PPPM initialization ...
  G vector (1/distance) = 0.29895603
  grid = 40 360 40
  stencil order = 5
  estimated absolute RMS force accuracy = 0.00015620399
  estimated relative force accuracy = 1.0847766e-05
  3d grid and FFT values/proc = 26649 11200
