LAMMPS (29 Oct 2020)
#-------------------------
#
#This script is used to create different concentrations of vacancies in thorium dioxide
#By Ziqiang Wang on 07/03/2023
#
#-------------------------

clear
units                        metal
dimension                        3
boundary                     p p p
atom_style                   full
atom_modify                  map array

read_data                   perfect_relaxed.dat
Reading data file ...
  orthogonal box = (-0.27717828 -3.4472206 -0.27717828) to (27.617178 331.52722 27.617178)
  reading atoms ...
  18000 atoms
  reading velocities ...
  18000 velocities
Finding 1-2 1-3 1-4 neighbors ...
     0 = max # of 1-2 neighbors
     0 = max # of 1-3 neighbors
     0 = max # of 1-4 neighbors
     1 = max # of special neighbors

# randomly create vacancies in the relaxed perfect crystal
variable        vac_ratio   equal  0.01
group           Th_delete   id   5726  5800  8042  1588 17690 10792 11236 10417 11944  4767  9061 15973                                   5176 15614  1060  5966 16288 13202 12291  6674  3963  6505 15807  1970                                   8620 12844 12265 15136  8258  2450  2606  1094  3050  7263 10009 13093                                   135 15700 11979  9831 14583  9157 13348  4348  3194 16311 13119   505                                   16324  2980 11571  3242 11053 15291 13874  3952   616  2413 11835 12182
60 atoms in group Th_delete

group           O_delete    id   5721  5724  2202  2208  8097  8100 15990 15996 17685 17688  7194  7200                                   7638  7644  6756  6822  8346  8352  4711  4716  5408  9065 12312 12378                                   1578  1584 15609 15612 15462 15468  5961  5964 12690 12696 13205 13208                                   12235 12240  6669  6672  3907  3912  2844  2910 15751 15756  1965  1968                                   5022  5028  9246  9252  8604  8670 11538 11544  8253  8256  2445  2448                                   2601  2604  1089  1092  3045  3048  7207  7212  6348  6414  9432  9498                                   79    84 12102 12108 11923 11928  9775  9780 14527 14532  5496  5562                                   9750  9756   750   756  3189  3192 16255 16260 13063 13068 14844 14910                                   12726 12732 17382 17388 11515 11520  3297  3300  7392  7458 15235 15240                                   13869 13872   354   360 15018 15024 16752 16818 11779 11784 12185 12188
120 atoms in group O_delete

group                       delete   union   Th_delete  O_delete
180 atoms in group delete
delete_atoms                group    delete
Deleted 180 atoms, new total = 17820

set                         type    1      charge   -1.1104
Setting atom values ...
  11880 settings made for charge
set                         type    2      charge    2.2208
Setting atom values ...
  5940 settings made for charge
kspace_style                pppm     1.0e-05
pair_style                  hybrid/overlay    coul/long   11.0  eam/alloy
pair_coeff                  * * coul/long
pair_coeff                  * * eam/alloy CeThUNpPuAmCmO.eam.alloy O Th
neighbor                    2.0  bin
neigh_modify                every  1  delay  0  check  yes

# fully relaxing the defect configuration at 0K
fix                box_relax  all  box/relax aniso 0.0 vmax 0.001
min_style          cg
minimize           1.0e-30 1.0e-30 10000 10000
PPPM initialization ...
  G vector (1/distance) = 0.29913531
  grid = 40 240 40
  stencil order = 5
  estimated absolute RMS force accuracy = 0.00015449248
  estimated relative force accuracy = 1.0728909e-05
  3d grid and FFT values/proc = 18225 7600
  update every 1 steps, delay 0 steps, check yes
Step Temp E_pair E_mol TotEng Press Volume
0            0   -233860.33            0   -233860.33   -3150.0224    260641.98
Loop time of 2.80235 on 52 procs for 132 steps with 17820 atoms

Minimization stats:
  Stopping criterion = linesearch alpha is zero
  Energy initial, next-to-last, final =
  Force two-norm initial, final = 917.80983 22.286142
  Force max component initial, final = 681.81834 18.194262
  Final line search alpha, max atom move = 1.4784015e-11 2.6898424e-10
  Iterations, force evaluations = 132 244

unfix              box_relax

# apply the temperature into the system and relaxing at the temperature of interest
reset_atom_ids
PPPM initialization ...
  G vector (1/distance) = 0.29912236
  grid = 40 240 40
  stencil order = 5
  estimated absolute RMS force accuracy = 0.00015456613
  estimated relative force accuracy = 1.0734024e-05
  3d grid and FFT values/proc = 18225 7600
Finding 1-2 1-3 1-4 neighbors ...
     0 = max # of 1-2 neighbors
     0 = max # of 1-3 neighbors
     0 = max # of 1-4 neighbors
     1 = max # of special neighbors
variable                    temp      equal    600
velocity                    all  create   600  4542  dist  gaussian  rot  yes  mom  yes
fix                         npt  all  npt  temp  600  600  $(100*dt) aniso  0.0  0.0  $(1000*dt)
fix                         npt  all  npt  temp  600  600  0.10000000000000000555 aniso  0.0  0.0  $(1000*dt)
fix                         npt  all  npt  temp  600  600  0.10000000000000000555 aniso  0.0  0.0  1

thermo                      10000
thermo_style                custom   step dt time atoms temp pe ke press vol

shell                       mkdir vac_0.01_600K
dump                        1  all  custom  10000  ./vac_0.01_600K/dump_relax.atom.* id type q x y z
dump_modify                 1  element  O  Th

run                         100000
PPPM initialization ...
  G vector (1/distance) = 0.29912236
  grid = 40 240 40
  stencil order = 5
  estimated absolute RMS force accuracy = 0.00015456613
  estimated relative force accuracy = 1.0734024e-05
  3d grid and FFT values/proc = 18225 7600
Step Dt Time Atoms Temp PotEng KinEng Press Volume
132        0.001            0    17820          600   -234180.51    1381.9719    5702.4391    260913.93
Averages over the last 6 of 12 rows, steps 60000 to 100132:
Dt Atoms Temp PotEng KinEng Press Volume
0.001 17820 598.139 -232752 1377.69 111.535 265264
Loop time of 872.193 on 52 procs for 100000 steps with 17820 atoms

shell                       mkdir thermal_condu
write_data                  thermal_condu/vac_0.01_relaxed.dat
System init for write_data ...
PPPM initialization ...
  G vector (1/distance) = 0.29881046
  grid = 40 240 40
  stencil order = 5
  estimated absolute RMS force accuracy = 0.00015706262
  estimated relative force accuracy = 1.0907395e-05
  3d grid and FFT values/proc = 18225 7600
