LAMMPS (29 Oct 2020)
#---------------------------------------
#
# This script is used to calculate the thermal conuctivity of UO2 using Muller-Plathe method
# By Ziqiang Wang on 03/18/2022 on Jilin university
#
#---------------------------------------

variable     Nevery    equal   200
variable     T         equal   600

clear
units          metal
boundary       p p p
atom_style     full

read_data vac_0.01_relaxed.dat
Reading data file ...
  orthogonal box = (-0.37009568 -4.3330084 -0.37190101) to (27.710096 332.41301 27.711901)
  reading atoms ...
  17820 atoms
  reading velocities ...
  17820 velocities
Finding 1-2 1-3 1-4 neighbors ...
     0 = max # of 1-2 neighbors
     0 = max # of 1-3 neighbors
     0 = max # of 1-4 neighbors
     1 = max # of special neighbors

set           type     1    charge     -1.1104
Setting atom values ...
  11880 settings made for charge
set           type     2    charge      2.2208
Setting atom values ...
  5940 settings made for charge

kspace_style    pppm   1.0e-05
pair_style      hybrid/overlay  coul/long  11.0  eam/alloy
pair_coeff      * * coul/long
pair_coeff      * * eam/alloy CeThUNpPuAmCmO.eam.alloy O Th
newton          on
neighbor        0.3 bin
neigh_modify    delay 0 check yes every 1

#The first equilation
velocity        all create $T 10004 mom yes rot yes dist gaussian
velocity        all create 600 10004 mom yes rot yes dist gaussian
fix             nvt  all  nvt  temp  $T $T  0.1
fix             nvt  all  nvt  temp  600 $T  0.1
fix             nvt  all  nvt  temp  600 600  0.1

run             100000
PPPM initialization ...
  G vector (1/distance) = 0.29880308
  grid = 40 240 40
  stencil order = 5
  estimated absolute RMS force accuracy = 0.0001571099
  estimated relative force accuracy = 1.0910679e-05
  3d grid and FFT values/proc = 9375 4000
  update every 1 steps, delay 0 steps, check yes
Step Temp E_pair E_mol TotEng Press
0          600   -232702.86            0   -231320.89   -756.69735
Loop time of 729.342 on 104 procs for 100000 steps with 17820 atoms

unfix           nvt
reset_timestep  0

# the second run
fix             1 all nve

group           oxygen type 1
11880 atoms in group oxygen
fix             2 oxygen thermal/conductivity 200 y 20

compute         ke all ke/atom
variable        temp atom c_ke/1.5
compute         layers all chunk/atom bin/1d y lower 0.05 units reduced
fix             3      all ave/chunk  2 50000 100000 layers v_temp file profile_600K.mp

variable        Tdiff    equal     f_3[11][3]-f_3[1][3]
variable        deltaT   equal     v_Tdiff*1.5/0.0001292

timestep        0.001
thermo_style    custom step f_2 temp v_Tdiff v_deltaT
thermo          100000

run             1200000
PPPM initialization ...
  G vector (1/distance) = 0.29880308
  grid = 40 240 40
  stencil order = 5
  estimated absolute RMS force accuracy = 0.0001571099
  estimated relative force accuracy = 1.0910679e-05
  3d grid and FFT values/proc = 9375 4000
Step f_2 Temp v_Tdiff v_deltaT
0            0    597.66287            0            0
Averages over the last 7 of 13 rows, steps 600000 to 1200000:
f_2 Temp v_Tdiff v_deltaT
1785.05 603.424 0.00646887 75.103
Loop time of 8783 on 104 procs for 1200000 steps with 17820 atoms
