LAMMPS (29 Oct 2020)
#-------------------------
#
#This script is used to create different concentrations of vacancies in thorium dioxide
#By Ziqiang Wang on 07/03/2023
#
#-------------------------

clear
units                        metal
dimension                        3
boundary                     p p p
atom_style                   full
atom_modify                  map array

read_data                   perfect_relaxed.dat
Reading data file ...
  orthogonal box = (-0.27717828 -3.4472206 -0.27717828) to (27.617178 331.52722 27.617178)
  reading atoms ...
  18000 atoms
  reading velocities ...
  18000 velocities
Finding 1-2 1-3 1-4 neighbors ...
     0 = max # of 1-2 neighbors
     0 = max # of 1-3 neighbors
     0 = max # of 1-4 neighbors
     1 = max # of special neighbors

# randomly create vacancies in the relaxed perfect crystal
variable         vac_ratio       equal    0.015
region           sphere    sphere     13.67 52.3819 13.67 7.5  units box
group            sphere     region  sphere
131 atoms in group sphere
group            oxygen     id 7848 7902
2 atoms in group oxygen
group            thorium    id 7779 7899
2 atoms in group thorium
group            cluster          union sphere oxygen thorium
135 atoms in group cluster
group            Th       type     2
6000 atoms in group Th
group            O        type     1
12000 atoms in group O
group            Th_group   intersect  cluster   Th
45 atoms in group Th_group
group            O_group    intersect  cluster   O
90 atoms in group O_group
delete_atoms     group      cluster
Deleted 135 atoms, new total = 17865

region           sphere     delete
group            sphere     delete
group            oxygen     delete
group            thorium    delete
#group            1          delete
group            cluster    delete
group            Th         delete
group            O          delete
group            Th_group   delete
group            O_group    delete

region           sphere    sphere     13.67 275.698 13.67 7.5  units box
group            sphere     region  sphere
131 atoms in group sphere
group            oxygen     id 10248 10302
2 atoms in group oxygen
group            thorium    id 10179 10299
2 atoms in group thorium
group            cluster          union sphere thorium oxygen
135 atoms in group cluster
#group            cluster          union    1 oxygen
group            Th       type     2
5955 atoms in group Th
group            O        type     1
11910 atoms in group O
group            Th_group   intersect  cluster   Th
45 atoms in group Th_group
group            O_group    intersect  cluster   O
90 atoms in group O_group
delete_atoms     group      cluster
Deleted 135 atoms, new total = 17730
region           sphere     delete
group            sphere     delete
group            oxygen     delete
group            thorium    delete
#group            1          delete
group            cluster    delete
group            Th         delete
group            O          delete
group            Th_group   delete
group            O_group    delete

set                         type    1      charge   -1.1104
Setting atom values ...
  11820 settings made for charge
set                         type    2      charge    2.2208
Setting atom values ...
  5910 settings made for charge
kspace_style                pppm     1.0e-05
pair_style                  hybrid/overlay    coul/long   11.0  eam/alloy
pair_coeff                  * * coul/long
pair_coeff                  * * eam/alloy CeThUNpPuAmCmO.eam.alloy O Th
neighbor                    2.0  bin
neigh_modify                every  1  delay  0  check  yes

# fully relaxing the defect configuration at 0K
fix                box_relax  all  box/relax aniso 0.0 vmax 0.001
min_style          cg
minimize           1.0e-30 1.0e-30 10000 10000
PPPM initialization ...
  G vector (1/distance) = 0.29912852
  grid = 40 240 40
  stencil order = 5
  estimated absolute RMS force accuracy = 0.00015413022
  estimated relative force accuracy = 1.0703751e-05
  3d grid and FFT values/proc = 18225 7600
  update every 1 steps, delay 0 steps, check yes
Step Temp E_pair E_mol TotEng Press Volume
0            0   -233075.46            0   -233075.46     -1305.69    260641.98
Loop time of 1.24523 on 52 procs for 42 steps with 17730 atoms

Minimization stats:
  Stopping criterion = linesearch alpha is zero
  Energy initial, next-to-last, final =
  Force two-norm initial, final = 442.01507 299.48943
  Force max component initial, final = 404.76042 223.38203
  Final line search alpha, max atom move = 6.8781625e-14 1.5364579e-11
  Iterations, force evaluations = 42 112

unfix              box_relax

# apply the temperature into the system and relaxing at the temperature of interest
reset_atom_ids
PPPM initialization ...
  G vector (1/distance) = 0.29914395
  grid = 40 240 40
  stencil order = 5
  estimated absolute RMS force accuracy = 0.00015398534
  estimated relative force accuracy = 1.069369e-05
  3d grid and FFT values/proc = 18225 7600
Finding 1-2 1-3 1-4 neighbors ...
     0 = max # of 1-2 neighbors
     0 = max # of 1-3 neighbors
     0 = max # of 1-4 neighbors
     1 = max # of special neighbors
variable                    temp      equal    1200
velocity                    all  create   1200  4542  dist  gaussian  rot  yes  mom  yes
fix                         npt  all  npt  temp  1200  1200  $(100*dt) aniso  0.0  0.0  $(1000*dt)
fix                         npt  all  npt  temp  1200  1200  0.10000000000000000555 aniso  0.0  0.0  $(1000*dt)
fix                         npt  all  npt  temp  1200  1200  0.10000000000000000555 aniso  0.0  0.0  1

thermo                      10000
thermo_style                custom   step dt time atoms temp pe ke press vol

shell                       mkdir vac_0.015_1200K
dump                        1  all  custom  10000  ./vac_0.015_1200K/dump_relax.atom.* id type q x y z
dump_modify                 1  element  O  Th

run                         100000
PPPM initialization ...
  G vector (1/distance) = 0.29914395
  grid = 40 240 40
  stencil order = 5
  estimated absolute RMS force accuracy = 0.00015398534
  estimated relative force accuracy = 1.069369e-05
  3d grid and FFT values/proc = 18225 7600
Step Dt Time Atoms Temp PotEng KinEng Press Volume
42        0.001            0    17730         1200   -233162.77    2749.9837    12306.702    260485.59
Averages over the last 6 of 12 rows, steps 60000 to 100042:
Dt Atoms Temp PotEng KinEng Press Volume
0.001 17730 1199.58 -230270 2749.03 -840.879 269775
Loop time of 820.312 on 52 procs for 100000 steps with 17730 atoms

shell                       mkdir thermal_condu
write_data                  thermal_condu/vac_0.015_relaxed.dat
System init for write_data ...
PPPM initialization ...
  G vector (1/distance) = 0.29848866
  grid = 40 240 40
  stencil order = 5
  estimated absolute RMS force accuracy = 0.00015928361
  estimated relative force accuracy = 1.1061634e-05
  3d grid and FFT values/proc = 18225 7600
