LAMMPS (29 Oct 2020)
#-------------------------
#
#This script is used to create different concentrations of vacancies in thorium dioxide
#By Ziqiang Wang on 07/03/2023
#
#-------------------------

clear
units                        metal
dimension                        3
boundary                     p p p
atom_style                   full
atom_modify                  map array

read_data                   perfect_relaxed.dat
Reading data file ...
  orthogonal box = (-0.27717828 -3.4472206 -0.27717828) to (27.617178 331.52722 27.617178)
  reading atoms ...
  18000 atoms
  reading velocities ...
  18000 velocities
Finding 1-2 1-3 1-4 neighbors ...
     0 = max # of 1-2 neighbors
     0 = max # of 1-3 neighbors
     0 = max # of 1-4 neighbors
     1 = max # of special neighbors

set                         type    1      charge   -1.1104
Setting atom values ...
  12000 settings made for charge
set                         type    2      charge    2.2208
Setting atom values ...
  6000 settings made for charge

kspace_style                pppm     1.0e-05
pair_style                  hybrid/overlay    coul/long   11.0  eam/alloy
pair_coeff                  * * coul/long
pair_coeff                  * * eam/alloy CeThUNpPuAmCmO.eam.alloy O Th
neighbor                    2.0  bin
neigh_modify                every  1  delay  0  check  yes

# randomly create vacancies in the relaxed perfect crystal
variable         vac_ratio       equal    0.01
group Th_delete  id 10922 11824  1768  9169  1323 10621 14331   949   961  6037  3734 17689                     7215  3951  7959 14498 16681 15495 15220 17857 15818 17077 16417 11990                      9253  7250  2486 17329 15002 11365  5332 16035  9758 17221 16334 16911                      8738   628  6385 10213  3856 10323  6865  3700  4276  3196  7576 17773                      10612  3049  1888 15662 16504 14737  8917  3002 14005  8942 16635  4096
60 atoms in group Th_delete
group O_delete   id 10977 10978  8226  8228 16170 16172  5508  5516  1267  1268  6968  7026                     14275 14276 15288 15296 15308 15366  2376  2384  3729  3730 14028 14036                     7217  7218  3895  3896  7903  7904 14493 14494 13028 13086 15439 15440                     11622 11624 14196 14204 15813 15814 13416 13424 12756 12764 11985 11986                     5592  5600  7245  7246  2481  2482 13668 13676 15057 15058  7704  7712                      1734  1736 15979 15980  9753  9754 13568 13626 16329 16330 16855 16856                      8733  8734 15030 15032  2724  2732  6552  6560   258   260 10267 10268                      3204  3212   102   104   678   680 17598 17600  3978  3980 14112 14120                      7014  7016 17388 17396 16290 16292 15665 15666 12906 12908 11076 11084                      5256  5264  3005  3006 10344 10352  8945  8946 16579 16580   498   500
120 atoms in group O_delete
group              delete     union   Th_delete  O_delete
180 atoms in group delete
delete_atoms       group      delete
Deleted 180 atoms, new total = 17820

# fully relaxing the defect configuration at 0K
fix                box_relax  all  box/relax aniso 0.0 vmax 0.001
min_style          cg
minimize           1.0e-30 1.0e-30 10000 10000
PPPM initialization ...
  G vector (1/distance) = 0.29913531
  grid = 40 240 40
  stencil order = 5
  estimated absolute RMS force accuracy = 0.00015449248
  estimated relative force accuracy = 1.0728909e-05
  3d grid and FFT values/proc = 11664 4000
  update every 1 steps, delay 0 steps, check yes
Step Temp E_pair E_mol TotEng Press Volume
0            0   -233731.32            0   -233731.32   -2660.7397    260641.98
Loop time of 2.33493 on 104 procs for 140 steps with 17820 atoms

Minimization stats:
  Stopping criterion = linesearch alpha is zero
  Energy initial, next-to-last, final =
  Force two-norm initial, final = 796.89914 5.0583505
  Force max component initial, final = 626.76191 1.7466816
  Final line search alpha, max atom move = 2.7299603e-10 4.7683716e-10
  Iterations, force evaluations = 140 241

unfix              box_relax

# apply the temperature into the system and relaxing at the temperature of interest
reset_atom_ids
PPPM initialization ...
  G vector (1/distance) = 0.29911082
  grid = 40 240 40
  stencil order = 5
  estimated absolute RMS force accuracy = 0.00015465825
  estimated relative force accuracy = 1.0740421e-05
  3d grid and FFT values/proc = 11664 4000
Finding 1-2 1-3 1-4 neighbors ...
     0 = max # of 1-2 neighbors
     0 = max # of 1-3 neighbors
     0 = max # of 1-4 neighbors
     1 = max # of special neighbors
variable                    temp      equal    600
velocity                    all  create   600  4542  dist  gaussian  rot  yes  mom  yes
fix                         npt  all  npt  temp  600  600  $(100*dt) aniso  0.0  0.0  $(1000*dt)
fix                         npt  all  npt  temp  600  600  0.10000000000000000555 aniso  0.0  0.0  $(1000*dt)
fix                         npt  all  npt  temp  600  600  0.10000000000000000555 aniso  0.0  0.0  1

thermo                      10000
thermo_style                custom   step dt time atoms temp pe ke press vol

shell                       mkdir vac_0.01_600K
dump                        1  all  custom  10000  ./vac_0.01_600K/dump_relax.atom.* id type q x y z
dump_modify                 1  element  O  Th

run                         100000
PPPM initialization ...
  G vector (1/distance) = 0.29911082
  grid = 40 240 40
  stencil order = 5
  estimated absolute RMS force accuracy = 0.00015465825
  estimated relative force accuracy = 1.0740421e-05
  3d grid and FFT values/proc = 11664 4000
Step Dt Time Atoms Temp PotEng KinEng Press Volume
140        0.001            0    17820          600   -234127.04    1381.9719    5657.5659    261079.04
Averages over the last 6 of 12 rows, steps 60000 to 100140:
Dt Atoms Temp PotEng KinEng Press Volume
0.001 17820 600.309 -232711 1382.68 175.592 265400
Loop time of 833.395 on 104 procs for 100000 steps with 17820 atoms

shell                       mkdir thermal_condu
write_data                  thermal_condu/vac_0.01_relaxed.dat
System init for write_data ...
PPPM initialization ...
  G vector (1/distance) = 0.29880308
  grid = 40 240 40
  stencil order = 5
  estimated absolute RMS force accuracy = 0.0001571099
  estimated relative force accuracy = 1.0910679e-05
  3d grid and FFT values/proc = 11664 4000
