LAMMPS (29 Oct 2020)
#-------------------------
#
#This script is used to create different concentrations of vacancies in thorium dioxide
#By Ziqiang Wang on 07/03/2023
#
#-------------------------

clear
units                        metal
dimension                        3
boundary                     p p p
atom_style                   full
atom_modify                  map array

read_data                   ThO2_unitcell.dat
Reading data file ...
  orthogonal box = (0.0000000 0.0000000 0.0000000) to (5.4680000 5.4680000 5.4680000)
  reading atoms ...
  12 atoms
Finding 1-2 1-3 1-4 neighbors ...
     0 = max # of 1-2 neighbors
     0 = max # of 1-3 neighbors
     0 = max # of 1-4 neighbors
     1 = max # of special neighbors
replicate                   5  75  5
Replicating atoms ...
  orthogonal box = (0.0000000 0.0000000 0.0000000) to (27.340000 410.10000 27.340000)
  22500 atoms
Finding 1-2 1-3 1-4 neighbors ...
     0 = max # of 1-2 neighbors
     0 = max # of 1-3 neighbors
     0 = max # of 1-4 neighbors
     1 = max # of special neighbors
  replicate CPU = 0.014 seconds

set                         type    1      charge   -1.1104
Setting atom values ...
  15000 settings made for charge
set                         type    2      charge    2.2208
Setting atom values ...
  7500 settings made for charge

kspace_style                pppm     1.0e-05
pair_style                  hybrid/overlay    coul/long   11.0  eam/alloy
pair_coeff                  * * coul/long
pair_coeff                  * * eam/alloy CeThUNpPuAmCmO.eam.alloy O Th Th O
neighbor                    2.0  bin
neigh_modify                every  1  delay  0  check  yes

# Fully relaxing the perfect crystal at 0K
fix                         box_relax  all  box/relax  aniso  0.0  vmax  0.001
min_style                   cg
minimize                    1.0e-30 1.0e-30 10000 10000
PPPM initialization ...
  G vector (1/distance) = 0.29960301
  grid = 40 288 40
  stencil order = 5
  estimated absolute RMS force accuracy = 0.00015478117
  estimated relative force accuracy = 1.0748957e-05
  3d grid and FFT values/proc = 22842 9600
  update every 1 steps, delay 0 steps, check yes
Step Temp E_pair E_mol TotEng Press Volume
0            0    -295410.9            0    -295410.9    136379.25    306539.74
Loop time of 0.887667 on 52 procs for 26 steps with 22500 atoms

Minimization stats:
  Stopping criterion = linesearch alpha is zero
  Energy initial, next-to-last, final =
  Force two-norm initial, final = 45194.477 0.059601831
  Force max component initial, final = 26093.595 0.038025016
  Final line search alpha, max atom move = 8.3368154e-06 3.1700753e-07
  Iterations, force evaluations = 26 57

unfix                       box_relax
reset_timestep              0
# randomly create vacancies in the relaxed perfect crystal
group                       thorium     type  2
7500 atoms in group thorium
group                       oxygen      type  1
15000 atoms in group oxygen

variable           vac_ratio   equal    0
variable           tot         equal    count(all)
variable           tot_vac     equal    round(22500*0)
variable           th_vac      equal    round(0*0.333333)
variable           oxy_vac     equal    2*0
set                group    thorium   type/subset  3   0  1252
Setting atom values ...
  0 settings made for type/subset
set                group    oxygen    type/subset  4   0 45558
Setting atom values ...
  0 settings made for type/subset

group              delete     type    3 4
0 atoms in group delete
delete_atoms       group      delete
Deleted 0 atoms, new total = 22500

# fully relaxing the defect configuration at 0K
fix                box_relax  all  box/relax aniso 0.0 vmax 0.001
min_style          cg
minimize           1.0e-30 1.0e-30 10000 10000
PPPM initialization ...
  G vector (1/distance) = 0.29847054
  grid = 40 288 40
  stencil order = 5
  estimated absolute RMS force accuracy = 0.00016404854
  estimated relative force accuracy = 1.1392541e-05
  3d grid and FFT values/proc = 22842 9600
Step Temp E_pair E_mol TotEng Press Volume
0            0   -296182.71            0   -296182.71   -2.5935908    325791.19
Loop time of 1.76062 on 52 procs for 5 steps with 22500 atoms

Minimization stats:
  Stopping criterion = linesearch alpha is zero
  Energy initial, next-to-last, final =
  Force two-norm initial, final = 0.92067881 162.79319
  Force max component initial, final = 0.57430595 151.24824
  Final line search alpha, max atom move = 3.9408487e-13 5.9604645e-11
  Iterations, force evaluations = 5 132

unfix              box_relax
reset_timestep     0

# apply the temperature into the system and relaxing system at the temperature of interest
reset_atom_ids
PPPM initialization ...
  G vector (1/distance) = 0.29846658
  grid = 40 288 40
  stencil order = 5
  estimated absolute RMS force accuracy = 0.00016409568
  estimated relative force accuracy = 1.1395814e-05
  3d grid and FFT values/proc = 22842 9600
Finding 1-2 1-3 1-4 neighbors ...
     0 = max # of 1-2 neighbors
     0 = max # of 1-3 neighbors
     0 = max # of 1-4 neighbors
     1 = max # of special neighbors
variable                    temp      equal    600
velocity                    all  create   600  47788  dist  gaussian  rot  yes  mom  yes
fix                         npt  all  npt  temp  600  600  $(100*dt) aniso  0.0  0.0  $(1000*dt)
fix                         npt  all  npt  temp  600  600  0.10000000000000000555 aniso  0.0  0.0  $(1000*dt)
fix                         npt  all  npt  temp  600  600  0.10000000000000000555 aniso  0.0  0.0  1

thermo                      10000
thermo_style                custom   step dt time atoms temp pe ke press vol

shell                       mkdir vac_0_600K
dump                        1  all  custom  10000  ./vac_0_600K/dump_relax.atom.* id type q x y z
dump_modify                 1  element  O  Th Th O

run                         100000
PPPM initialization ...
  G vector (1/distance) = 0.29846658
  grid = 40 288 40
  stencil order = 5
  estimated absolute RMS force accuracy = 0.00016409568
  estimated relative force accuracy = 1.1395814e-05
  3d grid and FFT values/proc = 22842 9600
Step Dt Time Atoms Temp PotEng KinEng Press Volume
0        0.001            0    22500          600   -296182.75    1744.9344    5612.0793    325808.99
Averages over the last 6 of 11 rows, steps 50000 to 100000:
Dt Atoms Temp PotEng KinEng Press Volume
0.001 22500 600.678 -294382 1746.91 78.1973 331071
Loop time of 1084.07 on 52 procs for 100000 steps with 22500 atoms

shell                       mkdir thermal_condu
write_data                  thermal_condu/vac_0_relaxed.dat
System init for write_data ...
PPPM initialization ...
  G vector (1/distance) = 0.2981724
  grid = 40 288 40
  stencil order = 5
  estimated absolute RMS force accuracy = 0.00016656523
  estimated relative force accuracy = 1.1567315e-05
  3d grid and FFT values/proc = 22842 9600
