LAMMPS (29 Oct 2020)
#-------------------------
#
#This script is used to create different concentrations of vacancies in thorium dioxide
#By Ziqiang Wang on 07/03/2023
#
#-------------------------

clear
units                        metal
dimension                        3
boundary                     p p p
atom_style                   full
atom_modify                  map array

read_data                   perfect_relaxed.dat
Reading data file ...
  orthogonal box = (-0.27717828 -3.4472206 -0.27717828) to (27.617178 331.52722 27.617178)
  reading atoms ...
  18000 atoms
  reading velocities ...
  18000 velocities
Finding 1-2 1-3 1-4 neighbors ...
     0 = max # of 1-2 neighbors
     0 = max # of 1-3 neighbors
     0 = max # of 1-4 neighbors
     1 = max # of special neighbors

# randomly create vacancies in the relaxed perfect crystal
variable        vac_ratio   equal  0.01
group           Th_delete   id   16288 15927  4852  6975  9230  7348  6518 10826  1395  4324  9566  5605                                  13550 15830  8944 11629 13418  5425  4250  4166  5079 16911  1035 15278                                  9651 15784 13898  3207  5943 16514 12649  6136 13623  8812 10153  5559                                   11077  3710 15616 13300 14716  7431 17679 17845 13274 14810  4814 17473                                  12424 10659  5845  5329  7132 11294  6388 17584 13789 15099   818  7935
60 atoms in group Th_delete
group           O_delete    id   12690 16295 15871 15934  1254  4859  6919  6982  9225  9236  3750  7355                                  6513  6524 10821 10832  1339  1402   726  4331  9561  9572  1944  5609                                   13545 13556 15825 15836  5346  8951  7968 11633 13413 13424  1764  5429                                  4245  4256  4161  4172  5023  5086 16855 16918   979  1042 15273 15284                                   9595  9658 12186 15791 13893 13904  3151  3214  5887  5950 16509 16520                                   8988 12653  2538  6143 13567 13630  5214  8819  6492 10157  5503  5566                                   7416 11081  3705  3716 12018 15623  9702 13307 11118 14723  7375  7438                                   17623 17686 14184 17849 13269 13280 14805 14816  4809  4820 13812 17477                                  8826 12431 10603 10666  2184  5849  1668  5333  3534  7139 11289 11300                                   2790  6395 13986 17591 10128 13793 15043 15106   813   824  7879  7942
120 atoms in group O_delete
group                       delete   union   Th_delete  O_delete
180 atoms in group delete
delete_atoms                group    delete
Deleted 180 atoms, new total = 17820

set                         type    1      charge   -1.1104
Setting atom values ...
  11880 settings made for charge
set                         type    2      charge    2.2208
Setting atom values ...
  5940 settings made for charge
kspace_style                pppm     1.0e-05
pair_style                  hybrid/overlay    coul/long   11.0  eam/alloy
pair_coeff                  * * coul/long
pair_coeff                  * * eam/alloy CeThUNpPuAmCmO.eam.alloy O Th
neighbor                    2.0  bin
neigh_modify                every  1  delay  0  check  yes

# fully relaxing the defect configuration at 0K
fix                box_relax  all  box/relax aniso 0.0 vmax 0.001
min_style          cg
minimize           1.0e-30 1.0e-30 10000 10000
PPPM initialization ...
  G vector (1/distance) = 0.29913531
  grid = 40 240 40
  stencil order = 5
  estimated absolute RMS force accuracy = 0.00015449248
  estimated relative force accuracy = 1.0728909e-05
  3d grid and FFT values/proc = 18225 7600
  update every 1 steps, delay 0 steps, check yes
Step Temp E_pair E_mol TotEng Press Volume
0            0   -233904.95            0   -233904.95   -3266.9431    260641.98
Loop time of 5.03304 on 52 procs for 243 steps with 17820 atoms

Minimization stats:
  Stopping criterion = linesearch alpha is zero
  Energy initial, next-to-last, final =
  Force two-norm initial, final = 951.94064 14.301146
  Force max component initial, final = 714.34645 12.565735
  Final line search alpha, max atom move = 3.2803995e-11 4.1220630e-10
  Iterations, force evaluations = 243 465

unfix              box_relax

# apply the temperature into the system and relaxing at the temperature of interest
reset_atom_ids
PPPM initialization ...
  G vector (1/distance) = 0.29912143
  grid = 40 240 40
  stencil order = 5
  estimated absolute RMS force accuracy = 0.00015457482
  estimated relative force accuracy = 1.0734627e-05
  3d grid and FFT values/proc = 18225 7600
Finding 1-2 1-3 1-4 neighbors ...
     0 = max # of 1-2 neighbors
     0 = max # of 1-3 neighbors
     0 = max # of 1-4 neighbors
     1 = max # of special neighbors
variable                    temp      equal    600
velocity                    all  create   600  4542  dist  gaussian  rot  yes  mom  yes
fix                         npt  all  npt  temp  600  600  $(100*dt) aniso  0.0  0.0  $(1000*dt)
fix                         npt  all  npt  temp  600  600  0.10000000000000000555 aniso  0.0  0.0  $(1000*dt)
fix                         npt  all  npt  temp  600  600  0.10000000000000000555 aniso  0.0  0.0  1

thermo                      10000
thermo_style                custom   step dt time atoms temp pe ke press vol

shell                       mkdir vac_0.01_600K
dump                        1  all  custom  10000  ./vac_0.01_600K/dump_relax.atom.* id type q x y z
dump_modify                 1  element  O  Th

run                         100000
PPPM initialization ...
  G vector (1/distance) = 0.29912143
  grid = 40 240 40
  stencil order = 5
  estimated absolute RMS force accuracy = 0.00015457482
  estimated relative force accuracy = 1.0734627e-05
  3d grid and FFT values/proc = 18225 7600
Step Dt Time Atoms Temp PotEng KinEng Press Volume
243        0.001            0    17820          600   -234192.35    1381.9719    5700.2446    260923.49
Averages over the last 6 of 12 rows, steps 60000 to 100243:
Dt Atoms Temp PotEng KinEng Press Volume
0.001 17820 599.736 -232771 1381.36 -583.547 265296
Loop time of 814.43 on 52 procs for 100000 steps with 17820 atoms

shell                       mkdir thermal_condu
write_data                  thermal_condu/vac_0.01_relaxed.dat
System init for write_data ...
PPPM initialization ...
  G vector (1/distance) = 0.29881462
  grid = 40 240 40
  stencil order = 5
  estimated absolute RMS force accuracy = 0.00015705196
  estimated relative force accuracy = 1.0906655e-05
  3d grid and FFT values/proc = 18225 7600
