LAMMPS (29 Oct 2020)
#-------------------------
#
#This script is used to create different concentrations of vacancies in thorium dioxide
#By Ziqiang Wang on 07/03/2023
#
#-------------------------

clear
units                        metal
dimension                        3
boundary                     p p p
atom_style                   full
atom_modify                  map array

read_data                   perfect_relaxed.dat
Reading data file ...
  orthogonal box = (-0.27717828 -3.4472206 -0.27717828) to (27.617178 331.52722 27.617178)
  reading atoms ...
  18000 atoms
  reading velocities ...
  18000 velocities
Finding 1-2 1-3 1-4 neighbors ...
     0 = max # of 1-2 neighbors
     0 = max # of 1-3 neighbors
     0 = max # of 1-4 neighbors
     1 = max # of special neighbors

set                         type    1      charge   -1.1104
Setting atom values ...
  12000 settings made for charge
set                         type    2      charge    2.2208
Setting atom values ...
  6000 settings made for charge

kspace_style                pppm     1.0e-05
pair_style                  hybrid/overlay    coul/long   11.0  eam/alloy
pair_coeff                  * * coul/long
pair_coeff                  * * eam/alloy CeThUNpPuAmCmO.eam.alloy O Th
neighbor                    2.0  bin
neigh_modify                every  1  delay  0  check  yes

# randomly create vacancies in the relaxed perfect crystal
variable         vac_ratio       equal    0.005
group Th_delete  id 12961  9362  9411  9352  5811  1994  1983  5593  5534  9124   712 15171                     15110 15111 15109 16887  2497 16898 16888 13347 15985 15976 15975 15926                     1528  2702  2763  6304  6361  2762
30 atoms in group Th_delete
group O_delete   id 9360  9418  9417  9419  9355  9356  5754  5756  5755  5759  1989  1990                       1927  1928  1932  1940  5529  5530  5526  5528 15114 15116 15115 15119                       15105 15106 15055 15056 11448 11456 16831 16832 16836 16844 16893 16894                      13290 13292 13291 13295 12324 12332 12378 12380 15919 15920 15921 15922                      15930 15932  2705  2706  2707  2708  2710  2712  2766  6307  2765  2767
60 atoms in group O_delete

group              delete     union   Th_delete  O_delete
90 atoms in group delete
delete_atoms       group      delete
Deleted 90 atoms, new total = 17910

# fully relaxing the defect configuration at 0K
fix                box_relax  all  box/relax aniso 0.0 vmax 0.001
min_style          cg
minimize           1.0e-30 1.0e-30 10000 10000
PPPM initialization ...
  G vector (1/distance) = 0.299142
  grid = 40 240 40
  stencil order = 5
  estimated absolute RMS force accuracy = 0.00015485404
  estimated relative force accuracy = 1.0754018e-05
  3d grid and FFT values/proc = 18225 7600
  update every 1 steps, delay 0 steps, check yes
Step Temp E_pair E_mol TotEng Press Volume
0            0    -235388.4            0    -235388.4    -1036.881    260641.98
Loop time of 1.19782 on 52 procs for 42 steps with 17910 atoms

Minimization stats:
  Stopping criterion = linesearch alpha is zero
  Energy initial, next-to-last, final =
  Force two-norm initial, final = 388.43948 77.905448
  Force max component initial, final = 361.77570 60.402841
  Final line search alpha, max atom move = 1.9735709e-12 1.1920929e-10
  Iterations, force evaluations = 42 102

unfix              box_relax

# apply the temperature into the system and relaxing at the temperature of interest
reset_atom_ids
PPPM initialization ...
  G vector (1/distance) = 0.29914523
  grid = 40 240 40
  stencil order = 5
  estimated absolute RMS force accuracy = 0.00015480752
  estimated relative force accuracy = 1.0750787e-05
  3d grid and FFT values/proc = 18225 7600
Finding 1-2 1-3 1-4 neighbors ...
     0 = max # of 1-2 neighbors
     0 = max # of 1-3 neighbors
     0 = max # of 1-4 neighbors
     1 = max # of special neighbors
variable                    temp      equal    900
velocity                    all  create   900  4542  dist  gaussian  rot  yes  mom  yes
fix                         npt  all  npt  temp  900  900  $(100*dt) aniso  0.0  0.0  $(1000*dt)
fix                         npt  all  npt  temp  900  900  0.10000000000000000555 aniso  0.0  0.0  $(1000*dt)
fix                         npt  all  npt  temp  900  900  0.10000000000000000555 aniso  0.0  0.0  1

thermo                      10000
thermo_style                custom   step dt time atoms temp pe ke press vol

shell                       mkdir vac_0.005_900K
dump                        1  all  custom  10000  ./vac_0.005_900K/dump_relax.atom.* id type q x y z
dump_modify                 1  element  O  Th

run                         100000
PPPM initialization ...
  G vector (1/distance) = 0.29914523
  grid = 40 240 40
  stencil order = 5
  estimated absolute RMS force accuracy = 0.00015480752
  estimated relative force accuracy = 1.0750787e-05
  3d grid and FFT values/proc = 18225 7600
Step Dt Time Atoms Temp PotEng KinEng Press Volume
42        0.001            0    17910          900   -235519.01    2083.4279    8535.9895    260656.39
Averages over the last 6 of 12 rows, steps 60000 to 100042:
Dt Atoms Temp PotEng KinEng Press Volume
0.001 17910 900.996 -233445 2085.73 664.354 267186
Loop time of 877.553 on 52 procs for 100000 steps with 17910 atoms

shell                       mkdir thermal_condu
write_data                  thermal_condu/vac_0.005_relaxed.dat
System init for write_data ...
PPPM initialization ...
  G vector (1/distance) = 0.29868921
  grid = 40 240 40
  stencil order = 5
  estimated absolute RMS force accuracy = 0.00015850952
  estimated relative force accuracy = 1.1007877e-05
  3d grid and FFT values/proc = 18225 7600
