LAMMPS (29 Oct 2020)
#-------------------------
#
#This script is used to create different concentrations of vacancies in thorium dioxide
#By Ziqiang Wang on 07/03/2023
#
#-------------------------

clear
units                        metal
dimension                        3
boundary                     p p p
atom_style                   full
atom_modify                  map array

read_data                   perfect_relaxed.dat
Reading data file ...
  orthogonal box = (-0.27717828 -3.4472206 -0.27717828) to (27.617178 331.52722 27.617178)
  reading atoms ...
  18000 atoms
  reading velocities ...
  18000 velocities
Finding 1-2 1-3 1-4 neighbors ...
     0 = max # of 1-2 neighbors
     0 = max # of 1-3 neighbors
     0 = max # of 1-4 neighbors
     1 = max # of special neighbors

# randomly create vacancies in the relaxed perfect crystal
variable        vac_ratio   equal  0.01
group           Th_delete   id   16732 16454  2536 12458  5583 10516 13849 12062  3122  4274 14726  1249                                   2582  8929  8091   159 15913 12568  5353 15087 12098 16550  3206  2066                                    9759  2630 11377  3926 10694 10228 10418  1900 17092 12880 15457 16756                                    7948 14198 11966 10827 11920  8428 17679 12662  5870   291  8667 15279                                    2872  1393   493 16035 17572 10732  7623 15136   411  7262  1768 11401
60 atoms in group Th_delete

group           O_delete    id   13134 13136 16449 16450 16938 16940 12453 12454  5527  5528  6918  6920                                  10188 10196 12065 12066  3125  3126  4269  4270 14721 14722 15588 15596                                  2585  2586  5268  5276  8035  8036   103   104 12252 12260  8970  8972                                  1692  1700 15031 15032 12093 12094 16545 16546  3201  3202  2061  2062                                  9703  9704  2625  2626  7716  7724  3921  3922 10689 10690  6630  6632                                  10413 10414 16302 16304 13494 13496  9282  9284 11796 11804 13158 13160                                  4350  4352 14193 14194 11961 11962 10829 10830  8322  8324  4830  4832                                  17623 17624 12665 12666  5865  5866   235   236  8611  8612 15223 15224                                  17274 17276 15732 15740 14832 14840 15979 15980 13974 13976  7134  7136                                  7567  7568 11538 11540   355   356  7317  7318 16170 16172  7800  7858
120 atoms in group O_delete

group                       delete   union   Th_delete  O_delete
180 atoms in group delete
delete_atoms                group    delete
Deleted 180 atoms, new total = 17820

set                         type    1      charge   -1.1104
Setting atom values ...
  11880 settings made for charge
set                         type    2      charge    2.2208
Setting atom values ...
  5940 settings made for charge
kspace_style                pppm     1.0e-05
pair_style                  hybrid/overlay    coul/long   11.0  eam/alloy
pair_coeff                  * * coul/long
pair_coeff                  * * eam/alloy CeThUNpPuAmCmO.eam.alloy O Th
neighbor                    2.0  bin
neigh_modify                every  1  delay  0  check  yes

# fully relaxing the defect configuration at 0K
fix                box_relax  all  box/relax aniso 0.0 vmax 0.001
min_style          cg
minimize           1.0e-30 1.0e-30 10000 10000
PPPM initialization ...
  G vector (1/distance) = 0.29913531
  grid = 40 240 40
  stencil order = 5
  estimated absolute RMS force accuracy = 0.00015449248
  estimated relative force accuracy = 1.0728909e-05
  3d grid and FFT values/proc = 18225 7600
  update every 1 steps, delay 0 steps, check yes
Step Temp E_pair E_mol TotEng Press Volume
0            0   -233728.92            0   -233728.92   -2655.5677    260641.98
Loop time of 3.24768 on 52 procs for 179 steps with 17820 atoms

Minimization stats:
  Stopping criterion = linesearch alpha is zero
  Energy initial, next-to-last, final =
  Force two-norm initial, final = 811.96740 14.904826
  Force max component initial, final = 635.89181 13.228187
  Final line search alpha, max atom move = 3.2169711e-11 4.2554697e-10
  Iterations, force evaluations = 179 296

unfix              box_relax

# apply the temperature into the system and relaxing at the temperature of interest
reset_atom_ids
PPPM initialization ...
  G vector (1/distance) = 0.29910833
  grid = 40 240 40
  stencil order = 5
  estimated absolute RMS force accuracy = 0.00015467635
  estimated relative force accuracy = 1.0741678e-05
  3d grid and FFT values/proc = 18225 7600
Finding 1-2 1-3 1-4 neighbors ...
     0 = max # of 1-2 neighbors
     0 = max # of 1-3 neighbors
     0 = max # of 1-4 neighbors
     1 = max # of special neighbors
variable                    temp      equal    600
velocity                    all  create   600  4542  dist  gaussian  rot  yes  mom  yes
fix                         npt  all  npt  temp  600  600  $(100*dt) aniso  0.0  0.0  $(1000*dt)
fix                         npt  all  npt  temp  600  600  0.10000000000000000555 aniso  0.0  0.0  $(1000*dt)
fix                         npt  all  npt  temp  600  600  0.10000000000000000555 aniso  0.0  0.0  1

thermo                      10000
thermo_style                custom   step dt time atoms temp pe ke press vol

shell                       mkdir vac_0.01_600K
dump                        1  all  custom  10000  ./vac_0.01_600K/dump_relax.atom.* id type q x y z
dump_modify                 1  element  O  Th

run                         100000
PPPM initialization ...
  G vector (1/distance) = 0.29910833
  grid = 40 240 40
  stencil order = 5
  estimated absolute RMS force accuracy = 0.00015467635
  estimated relative force accuracy = 1.0741678e-05
  3d grid and FFT values/proc = 18225 7600
Step Dt Time Atoms Temp PotEng KinEng Press Volume
179        0.001            0    17820          600   -234125.38    1381.9719    5692.7108    261120.13
Averages over the last 6 of 12 rows, steps 60000 to 100179:
Dt Atoms Temp PotEng KinEng Press Volume
0.001 17820 598.879 -232708 1379.39 698.966 265347
Loop time of 819.411 on 52 procs for 100000 steps with 17820 atoms

shell                       mkdir thermal_condu
write_data                  thermal_condu/vac_0.01_relaxed.dat
System init for write_data ...
PPPM initialization ...
  G vector (1/distance) = 0.29883086
  grid = 40 240 40
  stencil order = 5
  estimated absolute RMS force accuracy = 0.00015686165
  estimated relative force accuracy = 1.0893439e-05
  3d grid and FFT values/proc = 18225 7600
