LAMMPS (29 Oct 2020)
#-------------------------
#
#This script is used to create different concentrations of vacancies in thorium dioxide
#By Ziqiang Wang on 07/03/2023
#
#-------------------------

clear
units                        metal
dimension                        3
boundary                     p p p
atom_style                   full
atom_modify                  map array

read_data                   ThO2_unitcell.dat
Reading data file ...
  orthogonal box = (0.0000000 0.0000000 0.0000000) to (5.4680000 5.4680000 5.4680000)
  reading atoms ...
  12 atoms
Finding 1-2 1-3 1-4 neighbors ...
     0 = max # of 1-2 neighbors
     0 = max # of 1-3 neighbors
     0 = max # of 1-4 neighbors
     1 = max # of special neighbors
replicate                   5  100  5
Replicating atoms ...
  orthogonal box = (0.0000000 0.0000000 0.0000000) to (27.340000 546.80000 27.340000)
  30000 atoms
Finding 1-2 1-3 1-4 neighbors ...
     0 = max # of 1-2 neighbors
     0 = max # of 1-3 neighbors
     0 = max # of 1-4 neighbors
     1 = max # of special neighbors
  replicate CPU = 0.014 seconds

set                         type    1      charge   -1.1104
Setting atom values ...
  20000 settings made for charge
set                         type    2      charge    2.2208
Setting atom values ...
  10000 settings made for charge

kspace_style                pppm     1.0e-05
pair_style                  hybrid/overlay    coul/long   11.0  eam/alloy
pair_coeff                  * * coul/long
pair_coeff                  * * eam/alloy CeThUNpPuAmCmO.eam.alloy O Th Th O
neighbor                    2.0  bin
neigh_modify                every  1  delay  0  check  yes

# Fully relaxing the perfect crystal at 0K
fix                         box_relax  all  box/relax  aniso  0.0  vmax  0.001
min_style                   cg
minimize                    1.0e-30 1.0e-30 10000 10000
PPPM initialization ...
  G vector (1/distance) = 0.2983543
  grid = 40 360 40
  stencil order = 5
  estimated absolute RMS force accuracy = 0.0001712081
  estimated relative force accuracy = 1.1889744e-05
  3d grid and FFT values/proc = 26649 11200
  update every 1 steps, delay 0 steps, check yes
Step Temp E_pair E_mol TotEng Press Volume
0            0   -393879.72            0   -393879.72    136342.09    408719.66
Loop time of 1.22051 on 52 procs for 24 steps with 30000 atoms

Minimization stats:
  Stopping criterion = linesearch alpha is zero
  Energy initial, next-to-last, final =
  Force two-norm initial, final = 60242.888 0.11787713
  Force max component initial, final = 34792.536 0.011958295
  Final line search alpha, max atom move = 6.3800021e-07 7.6293945e-09
  Iterations, force evaluations = 24 61

unfix                       box_relax
reset_timestep              0
# randomly create vacancies in the relaxed perfect crystal
group                       thorium     type  2
10000 atoms in group thorium
group                       oxygen      type  1
20000 atoms in group oxygen

variable           vac_ratio   equal    0
variable           tot         equal    count(all)
variable           tot_vac     equal    round(30000*0)
variable           th_vac      equal    round(0*0.333333)
variable           oxy_vac     equal    2*0
set                group    thorium   type/subset  3   0  1252
Setting atom values ...
  0 settings made for type/subset
set                group    oxygen    type/subset  4   0 45558
Setting atom values ...
  0 settings made for type/subset

group              delete     type    3 4
0 atoms in group delete
delete_atoms       group      delete
Deleted 0 atoms, new total = 30000

# fully relaxing the defect configuration at 0K
fix                box_relax  all  box/relax aniso 0.0 vmax 0.001
min_style          cg
minimize           1.0e-30 1.0e-30 10000 10000
PPPM initialization ...
  G vector (1/distance) = 0.2981444
  grid = 40 375 40
  stencil order = 5
  estimated absolute RMS force accuracy = 0.00016836537
  estimated relative force accuracy = 1.1692328e-05
  3d grid and FFT values/proc = 26649 12000
Step Temp E_pair E_mol TotEng Press Volume
0            0    -394909.9            0    -394909.9    34.796878    434377.51
Loop time of 0.783927 on 52 procs for 2 steps with 30000 atoms

Minimization stats:
  Stopping criterion = linesearch alpha is zero
  Energy initial, next-to-last, final =
  Force two-norm initial, final = 32.332899 14.744408
  Force max component initial, final = 32.214331 10.385864
  Final line search alpha, max atom move = 4.4174530e-11 4.5879066e-10
  Iterations, force evaluations = 2 44

unfix              box_relax
reset_timestep     0

# apply the temperature into the system and relaxing system at the temperature of interest
reset_atom_ids
PPPM initialization ...
  G vector (1/distance) = 0.29814372
  grid = 40 375 40
  stencil order = 5
  estimated absolute RMS force accuracy = 0.00016837148
  estimated relative force accuracy = 1.1692752e-05
  3d grid and FFT values/proc = 26649 12000
Finding 1-2 1-3 1-4 neighbors ...
     0 = max # of 1-2 neighbors
     0 = max # of 1-3 neighbors
     0 = max # of 1-4 neighbors
     1 = max # of special neighbors
variable                    temp      equal    600
velocity                    all  create   600  47788  dist  gaussian  rot  yes  mom  yes
fix                         npt  all  npt  temp  600  600  $(100*dt) aniso  0.0  0.0  $(1000*dt)
fix                         npt  all  npt  temp  600  600  0.10000000000000000555 aniso  0.0  0.0  $(1000*dt)
fix                         npt  all  npt  temp  600  600  0.10000000000000000555 aniso  0.0  0.0  1

thermo                      10000
thermo_style                custom   step dt time atoms temp pe ke press vol

shell                       mkdir vac_0_600K
dump                        1  all  custom  10000  ./vac_0_600K/dump_relax.atom.* id type q x y z
dump_modify                 1  element  O  Th Th O

run                         100000
PPPM initialization ...
  G vector (1/distance) = 0.29814372
  grid = 40 375 40
  stencil order = 5
  estimated absolute RMS force accuracy = 0.00016837148
  estimated relative force accuracy = 1.1692752e-05
  3d grid and FFT values/proc = 26649 12000
Step Dt Time Atoms Temp PotEng KinEng Press Volume
0        0.001            0    30000          600   -394909.91    2326.6051     5693.724    434391.46
Averages over the last 6 of 11 rows, steps 50000 to 100000:
Dt Atoms Temp PotEng KinEng Press Volume
0.001 30000 598.055 -392503 2319.06 -113.498 441470
Loop time of 1411.69 on 52 procs for 100000 steps with 30000 atoms

shell                       mkdir thermal_condu
write_data                  thermal_condu/vac_0_relaxed.dat
System init for write_data ...
PPPM initialization ...
  G vector (1/distance) = 0.29783472
  grid = 40 375 40
  stencil order = 5
  estimated absolute RMS force accuracy = 0.00017099089
  estimated relative force accuracy = 1.187466e-05
  3d grid and FFT values/proc = 26649 12000
