LAMMPS (29 Oct 2020)
#---------------------------------------
#
# This script is used to calculate the thermal conuctivity of UO2 containning vacancy clusters
# using Muller-Plathe method
# By Ziqiang Wang on 04/21/2022 on Jilin university
#
#---------------------------------------

variable  i  index  0.01 #for 1% vacancies
label        loop
variable     Nevery    equal   200
variable     T         equal   1200  #at the temperature of 1200K

clear
units          metal
boundary       p p p

atom_style     full

#lattice sc 4.329

#region box block 0 1 0 1 0 1

#create_box 2 box

#create_atoms 1 single 0 0 0
#create_atoms 1 single 0.5 0.5 0
#create_atoms 1 single 0.5 0 0.5
#create_atoms 1 single 0 0.5 0.5
#create_atoms 2 single 0.25 0.25 0.25
#create_atoms 2 single 0.75 0.75 0.25
#create_atoms 2 single 0.75 0.25 0.75
#create_atoms 2 single 0.25 0.75 0.75

#mass 1 28.086
#mass 2 12.011
read_data     porous.dat
Reading data file ...
  orthogonal box = (-2.3723143 -2.2951254 53.218269) to (29.712314 29.635125 493.58173)
  reading atoms ...
  30000 atoms
Finding 1-2 1-3 1-4 neighbors ...
     0 = max # of 1-2 neighbors
     0 = max # of 1-3 neighbors
     0 = max # of 1-4 neighbors
     1 = max # of special neighbors

set           type     1    charge     -1.1104
Setting atom values ...
  20000 settings made for charge
set           type     2    charge      2.2208
Setting atom values ...
  10000 settings made for charge
#set           type     3    charge     -1.1104
#set           type     4    charge      2.2208

#replicate     4  4  $L

kspace_style    pppm   1.0e-05
pair_style      hybrid/overlay  coul/long  11.0  eam/alloy
pair_coeff      * * coul/long
pair_coeff      * * eam/alloy CeThUNpPuAmCmO.eam.alloy O Th
newton          on
neighbor        0.3 bin
neigh_modify    delay 0 check yes every 1

velocity      all create $T 44553322 mom yes rot yes dist gaussian
velocity      all create 1200 44553322 mom yes rot yes dist gaussian
#The first equilation

fix             nvt  all  nvt  temp  $T $T  0.1
fix             nvt  all  nvt  temp  1200 $T  0.1
fix             nvt  all  nvt  temp  1200 1200  0.1

thermo          100000
thermo_style    one

reset_timestep  0
run             500000
PPPM initialization ...
  G vector (1/distance) = 0.29896032
  grid = 45 45 320
  stencil order = 5
  estimated absolute RMS force accuracy = 0.00015426367
  estimated relative force accuracy = 1.0713019e-05
  3d grid and FFT values/proc = 25200 14175
  update every 1 steps, delay 0 steps, check yes
Step Temp E_pair E_mol TotEng Press
0         1200   -384407.06            0   -379753.85   -182.59359
Loop time of 5162.59 on 52 procs for 500000 steps with 30000 atoms

velocity        all   scale   $T
velocity        all   scale   1200
unfix           nvt
reset_timestep  0

# the second run
fix             1 all nve

group           Silicon type 1
20000 atoms in group Silicon
fix             2 Silicon thermal/conductivity 200 z 20

compute         ke all ke/atom
variable        temp atom c_ke/1.5

compute         layers all chunk/atom bin/1d z lower 0.05 units reduced
fix             3      all ave/chunk  2 50000 100000 layers v_temp file profile_1200K_$i.mp
fix             3      all ave/chunk  2 50000 100000 layers v_temp file profile_1200K_0.01.mp

variable        Tdiff    equal     f_3[11][3]-f_3[1][3]
variable        deltaT   equal     v_Tdiff*1.5/0.0001292

timestep        0.001

thermo_style    custom step f_2 temp v_Tdiff v_deltaT
thermo          100000

#dump            1 all atom 500 dump.meam

run             2000000
PPPM initialization ...
  G vector (1/distance) = 0.29896032
  grid = 45 45 320
  stencil order = 5
  estimated absolute RMS force accuracy = 0.00015426367
  estimated relative force accuracy = 1.0713019e-05
  3d grid and FFT values/proc = 25200 14175
Step f_2 Temp v_Tdiff v_deltaT
0            0         1200            0            0
Averages over the last 11 of 21 rows, steps 1000000 to 2000000:
f_2 Temp v_Tdiff v_deltaT
5452.8 1204.65 0.0424648 493.012
Loop time of 20326.1 on 52 procs for 2000000 steps with 30000 atoms

#undump          1

#reset_timestep  0
fix             2 Silicon thermal/conductivity 200 z 20

fix             ave all ave/time 100000 2 200000 v_Tdiff ave running

thermo_style    custom step temp epair etotal f_2 v_Tdiff f_ave
thermo          200000

dump            2 all xyz 1000000 calcdump.*.xyz
run             400000
PPPM initialization ...
  G vector (1/distance) = 0.29896032
  grid = 45 45 320
  stencil order = 5
  estimated absolute RMS force accuracy = 0.00015426367
  estimated relative force accuracy = 1.0713019e-05
  3d grid and FFT values/proc = 25200 14175
Step Temp E_pair TotEng f_2 v_Tdiff f_ave
2000000    1208.3371   -384455.96   -379770.42            0  0.043630495            0
Loop time of 4062.68 on 52 procs for 400000 steps with 30000 atoms

undump          2
next            i
jump            in.mp loop
