LAMMPS (29 Oct 2020)
#-------------------------------
#
#This input script is used to simulate the defected configuration generated by overlapping cascades initiated at
#different energies
#Ziqiang Wang on 01/24/2022
#
#-------------------------------

clear
units                    metal
dimension                    3
boundary                 p p p
atom_style               full
atom_modify              map  array

variable                 numx     equal    5
variable                 numy     equal    60
variable                 numz     equal    5
#firstly create face center cubic uranium sublattice
variable                 lat      equal    5.5788
lattice                  fcc       5.5788
Lattice spacing in x,y,z = 5.5788000 5.5788000 5.5788000
region                   ruranium  block  0  5  0  60  0  5  units  lattice
create_box               8         ruranium
Created orthogonal box = (0.0000000 0.0000000 0.0000000) to (27.894000 334.72800 27.894000)
change_box               all       triclinic
Changing box ...
  triclinic box = (0.0000000 0.0000000 0.0000000) to (27.894000 334.72800 27.894000) with tilt (0.0000000 0.0000000 0.0000000)
create_atoms             2         region  ruranium
Created 6000 atoms

#secondly create simple cubic oxygen sublattice
variable                 a         equal  5.5788
variable                 fourth    equal  1.0/4.0
variable                 three4    equal  3.0/4.0
variable                 b       equal  0.25
variable                 c       equal  0.75

lattice                  custom    1.0  a1 $a 0.0 0.0                                         a2 0.0 $a 0.0                                         a3 0.0 0.0 $a                                      basis $b $b $b                                      basis $c $b $b                                      basis $b $b $c                                      basis $c $b $c                                      basis $b $c $b                                      basis $c $c $b                                      basis $b $c $c                                      basis $c $c $c
lattice                  custom    1.0  a1 5.5788 0.0 0.0                                         a2 0.0 $a 0.0                                         a3 0.0 0.0 $a                                      basis $b $b $b                                      basis $c $b $b                                      basis $b $b $c                                      basis $c $b $c                                      basis $b $c $b                                      basis $c $c $b                                      basis $b $c $c                                      basis $c $c $c
lattice                  custom    1.0  a1 5.5788 0.0 0.0                                         a2 0.0 5.5788 0.0                                         a3 0.0 0.0 $a                                      basis $b $b $b                                      basis $c $b $b                                      basis $b $b $c                                      basis $c $b $c                                      basis $b $c $b                                      basis $c $c $b                                      basis $b $c $c                                      basis $c $c $c
lattice                  custom    1.0  a1 5.5788 0.0 0.0                                         a2 0.0 5.5788 0.0                                         a3 0.0 0.0 5.5788                                      basis $b $b $b                                      basis $c $b $b                                      basis $b $b $c                                      basis $c $b $c                                      basis $b $c $b                                      basis $c $c $b                                      basis $b $c $c                                      basis $c $c $c
lattice                  custom    1.0  a1 5.5788 0.0 0.0                                         a2 0.0 5.5788 0.0                                         a3 0.0 0.0 5.5788                                      basis 0.25 $b $b                                      basis $c $b $b                                      basis $b $b $c                                      basis $c $b $c                                      basis $b $c $b                                      basis $c $c $b                                      basis $b $c $c                                      basis $c $c $c
lattice                  custom    1.0  a1 5.5788 0.0 0.0                                         a2 0.0 5.5788 0.0                                         a3 0.0 0.0 5.5788                                      basis 0.25 0.25 $b                                      basis $c $b $b                                      basis $b $b $c                                      basis $c $b $c                                      basis $b $c $b                                      basis $c $c $b                                      basis $b $c $c                                      basis $c $c $c
lattice                  custom    1.0  a1 5.5788 0.0 0.0                                         a2 0.0 5.5788 0.0                                         a3 0.0 0.0 5.5788                                      basis 0.25 0.25 0.25                                      basis $c $b $b                                      basis $b $b $c                                      basis $c $b $c                                      basis $b $c $b                                      basis $c $c $b                                      basis $b $c $c                                      basis $c $c $c
lattice                  custom    1.0  a1 5.5788 0.0 0.0                                         a2 0.0 5.5788 0.0                                         a3 0.0 0.0 5.5788                                      basis 0.25 0.25 0.25                                      basis 0.75 $b $b                                      basis $b $b $c                                      basis $c $b $c                                      basis $b $c $b                                      basis $c $c $b                                      basis $b $c $c                                      basis $c $c $c
lattice                  custom    1.0  a1 5.5788 0.0 0.0                                         a2 0.0 5.5788 0.0                                         a3 0.0 0.0 5.5788                                      basis 0.25 0.25 0.25                                      basis 0.75 0.25 $b                                      basis $b $b $c                                      basis $c $b $c                                      basis $b $c $b                                      basis $c $c $b                                      basis $b $c $c                                      basis $c $c $c
lattice                  custom    1.0  a1 5.5788 0.0 0.0                                         a2 0.0 5.5788 0.0                                         a3 0.0 0.0 5.5788                                      basis 0.25 0.25 0.25                                      basis 0.75 0.25 0.25                                      basis $b $b $c                                      basis $c $b $c                                      basis $b $c $b                                      basis $c $c $b                                      basis $b $c $c                                      basis $c $c $c
lattice                  custom    1.0  a1 5.5788 0.0 0.0                                         a2 0.0 5.5788 0.0                                         a3 0.0 0.0 5.5788                                      basis 0.25 0.25 0.25                                      basis 0.75 0.25 0.25                                      basis 0.25 $b $c                                      basis $c $b $c                                      basis $b $c $b                                      basis $c $c $b                                      basis $b $c $c                                      basis $c $c $c
lattice                  custom    1.0  a1 5.5788 0.0 0.0                                         a2 0.0 5.5788 0.0                                         a3 0.0 0.0 5.5788                                      basis 0.25 0.25 0.25                                      basis 0.75 0.25 0.25                                      basis 0.25 0.25 $c                                      basis $c $b $c                                      basis $b $c $b                                      basis $c $c $b                                      basis $b $c $c                                      basis $c $c $c
lattice                  custom    1.0  a1 5.5788 0.0 0.0                                         a2 0.0 5.5788 0.0                                         a3 0.0 0.0 5.5788                                      basis 0.25 0.25 0.25                                      basis 0.75 0.25 0.25                                      basis 0.25 0.25 0.75                                      basis $c $b $c                                      basis $b $c $b                                      basis $c $c $b                                      basis $b $c $c                                      basis $c $c $c
lattice                  custom    1.0  a1 5.5788 0.0 0.0                                         a2 0.0 5.5788 0.0                                         a3 0.0 0.0 5.5788                                      basis 0.25 0.25 0.25                                      basis 0.75 0.25 0.25                                      basis 0.25 0.25 0.75                                      basis 0.75 $b $c                                      basis $b $c $b                                      basis $c $c $b                                      basis $b $c $c                                      basis $c $c $c
lattice                  custom    1.0  a1 5.5788 0.0 0.0                                         a2 0.0 5.5788 0.0                                         a3 0.0 0.0 5.5788                                      basis 0.25 0.25 0.25                                      basis 0.75 0.25 0.25                                      basis 0.25 0.25 0.75                                      basis 0.75 0.25 $c                                      basis $b $c $b                                      basis $c $c $b                                      basis $b $c $c                                      basis $c $c $c
lattice                  custom    1.0  a1 5.5788 0.0 0.0                                         a2 0.0 5.5788 0.0                                         a3 0.0 0.0 5.5788                                      basis 0.25 0.25 0.25                                      basis 0.75 0.25 0.25                                      basis 0.25 0.25 0.75                                      basis 0.75 0.25 0.75                                      basis $b $c $b                                      basis $c $c $b                                      basis $b $c $c                                      basis $c $c $c
lattice                  custom    1.0  a1 5.5788 0.0 0.0                                         a2 0.0 5.5788 0.0                                         a3 0.0 0.0 5.5788                                      basis 0.25 0.25 0.25                                      basis 0.75 0.25 0.25                                      basis 0.25 0.25 0.75                                      basis 0.75 0.25 0.75                                      basis 0.25 $c $b                                      basis $c $c $b                                      basis $b $c $c                                      basis $c $c $c
lattice                  custom    1.0  a1 5.5788 0.0 0.0                                         a2 0.0 5.5788 0.0                                         a3 0.0 0.0 5.5788                                      basis 0.25 0.25 0.25                                      basis 0.75 0.25 0.25                                      basis 0.25 0.25 0.75                                      basis 0.75 0.25 0.75                                      basis 0.25 0.75 $b                                      basis $c $c $b                                      basis $b $c $c                                      basis $c $c $c
lattice                  custom    1.0  a1 5.5788 0.0 0.0                                         a2 0.0 5.5788 0.0                                         a3 0.0 0.0 5.5788                                      basis 0.25 0.25 0.25                                      basis 0.75 0.25 0.25                                      basis 0.25 0.25 0.75                                      basis 0.75 0.25 0.75                                      basis 0.25 0.75 0.25                                      basis $c $c $b                                      basis $b $c $c                                      basis $c $c $c
lattice                  custom    1.0  a1 5.5788 0.0 0.0                                         a2 0.0 5.5788 0.0                                         a3 0.0 0.0 5.5788                                      basis 0.25 0.25 0.25                                      basis 0.75 0.25 0.25                                      basis 0.25 0.25 0.75                                      basis 0.75 0.25 0.75                                      basis 0.25 0.75 0.25                                      basis 0.75 $c $b                                      basis $b $c $c                                      basis $c $c $c
lattice                  custom    1.0  a1 5.5788 0.0 0.0                                         a2 0.0 5.5788 0.0                                         a3 0.0 0.0 5.5788                                      basis 0.25 0.25 0.25                                      basis 0.75 0.25 0.25                                      basis 0.25 0.25 0.75                                      basis 0.75 0.25 0.75                                      basis 0.25 0.75 0.25                                      basis 0.75 0.75 $b                                      basis $b $c $c                                      basis $c $c $c
lattice                  custom    1.0  a1 5.5788 0.0 0.0                                         a2 0.0 5.5788 0.0                                         a3 0.0 0.0 5.5788                                      basis 0.25 0.25 0.25                                      basis 0.75 0.25 0.25                                      basis 0.25 0.25 0.75                                      basis 0.75 0.25 0.75                                      basis 0.25 0.75 0.25                                      basis 0.75 0.75 0.25                                      basis $b $c $c                                      basis $c $c $c
lattice                  custom    1.0  a1 5.5788 0.0 0.0                                         a2 0.0 5.5788 0.0                                         a3 0.0 0.0 5.5788                                      basis 0.25 0.25 0.25                                      basis 0.75 0.25 0.25                                      basis 0.25 0.25 0.75                                      basis 0.75 0.25 0.75                                      basis 0.25 0.75 0.25                                      basis 0.75 0.75 0.25                                      basis 0.25 $c $c                                      basis $c $c $c
lattice                  custom    1.0  a1 5.5788 0.0 0.0                                         a2 0.0 5.5788 0.0                                         a3 0.0 0.0 5.5788                                      basis 0.25 0.25 0.25                                      basis 0.75 0.25 0.25                                      basis 0.25 0.25 0.75                                      basis 0.75 0.25 0.75                                      basis 0.25 0.75 0.25                                      basis 0.75 0.75 0.25                                      basis 0.25 0.75 $c                                      basis $c $c $c
lattice                  custom    1.0  a1 5.5788 0.0 0.0                                         a2 0.0 5.5788 0.0                                         a3 0.0 0.0 5.5788                                      basis 0.25 0.25 0.25                                      basis 0.75 0.25 0.25                                      basis 0.25 0.25 0.75                                      basis 0.75 0.25 0.75                                      basis 0.25 0.75 0.25                                      basis 0.75 0.75 0.25                                      basis 0.25 0.75 0.75                                      basis $c $c $c
lattice                  custom    1.0  a1 5.5788 0.0 0.0                                         a2 0.0 5.5788 0.0                                         a3 0.0 0.0 5.5788                                      basis 0.25 0.25 0.25                                      basis 0.75 0.25 0.25                                      basis 0.25 0.25 0.75                                      basis 0.75 0.25 0.75                                      basis 0.25 0.75 0.25                                      basis 0.75 0.75 0.25                                      basis 0.25 0.75 0.75                                      basis 0.75 $c $c
lattice                  custom    1.0  a1 5.5788 0.0 0.0                                         a2 0.0 5.5788 0.0                                         a3 0.0 0.0 5.5788                                      basis 0.25 0.25 0.25                                      basis 0.75 0.25 0.25                                      basis 0.25 0.25 0.75                                      basis 0.75 0.25 0.75                                      basis 0.25 0.75 0.25                                      basis 0.75 0.75 0.25                                      basis 0.25 0.75 0.75                                      basis 0.75 0.75 $c
lattice                  custom    1.0  a1 5.5788 0.0 0.0                                         a2 0.0 5.5788 0.0                                         a3 0.0 0.0 5.5788                                      basis 0.25 0.25 0.25                                      basis 0.75 0.25 0.25                                      basis 0.25 0.25 0.75                                      basis 0.75 0.25 0.75                                      basis 0.25 0.75 0.25                                      basis 0.75 0.75 0.25                                      basis 0.25 0.75 0.75                                      basis 0.75 0.75 0.75
Lattice spacing in x,y,z = 5.5788000 5.5788000 5.5788000
region                   roxygen   block  0  5  0  60  0  5  units  lattice
create_atoms             1         region  roxygen
Created 12000 atoms

#Thirdly create customed lattice inserted octahedral interstitial atoms
lattice                  custom    $a  a1  1.0  0.0  0.0  a2  0.0  1.0  0.0  a3  0.0  0.0  1.0                          basis  0.5  0.0  0.0                          basis  0.0  0.5  0.0                          basis  0.0  0.0  0.5                          basis  0.5  0.5  0.5
lattice                  custom    5.5788  a1  1.0  0.0  0.0  a2  0.0  1.0  0.0  a3  0.0  0.0  1.0                          basis  0.5  0.0  0.0                          basis  0.0  0.5  0.0                          basis  0.0  0.0  0.5                          basis  0.5  0.5  0.5
Lattice spacing in x,y,z = 5.5788000 5.5788000 5.5788000
region                   roct      block  0  5  0  60  0  5  units  lattice
create_atoms             3         region  roct                           basis     3     4                                basis     4     4
Created 6000 atoms

mass                     1       15.99
mass                     2      232.038
mass                     3       15.99
mass                     4      232.038
mass                     5       15.99
mass                     6      232.038
mass                     7       15.99
mass                     8      232.038

kspace_style                   pppm            1.0e-5
pair_style                     hybrid/overlay     coul/long    11.0   eam/alloy
pair_coeff                     * * coul/long
pair_coeff                     * * eam/alloy CeThUNpPuAmCmO.eam.alloy O Th O Th O Th O Th
neighbor                 2.0  bin
neigh_modify             delay  0  every  1  check   yes

# Create the Frenkel pairs in the relaxed perfect crystal
variable                 ntot equal     5*60*5*12

# Specifize the concentration of the defects
variable                 N      equal     0.25
variable                 r      equal     $N/100
variable                 r      equal     0.25/100
variable                 third  equal     1/3
variable                 two3   equal     2/3
if '$N == 0' then 'variable onum equal 0' 'variable unum equal 0'
variable onum equal 18000*0.0025*0.666666666666667
variable unum equal 18000*0.0025*0.333333333333333

variable                 otot    equal   5*60*5*8
variable                 utot    equal   5*60*5*4
variable                 oratio  equal   30/12000
variable                 uratio  equal   15/6000

variable                 octOnum    equal   5*60*5*2-30
variable                 octnum     equal   5*60*5*2
variable                 octOratio  equal   2970/3000
variable                 octUnum    equal   5*60*5*2-15
variable                 octUratio  equal   2985/3000

group                    oxygen    type    1
12000 atoms in group oxygen
group                    uranium   type    2
6000 atoms in group uranium
group                    octoxygen type    3
3000 atoms in group octoxygen
group                    octuran   type    4
3000 atoms in group octuran
set                      group     oxygen     type/ratio  5  0.0025  5561
Setting atom values ...
  30 settings made for type/ratio
set                      group     uranium    type/ratio  6  0.0025  65548
Setting atom values ...
  15 settings made for type/ratio
set                      group     octoxygen  type/ratio  7  0.99 745415
Setting atom values ...
  2970 settings made for type/ratio
set                      group     octuran    type/ratio  8  0.995 85328
Setting atom values ...
  2985 settings made for type/ratio

group                    odel      type    5
30 atoms in group odel
group                    udel      type    6
15 atoms in group udel
group                    octOdel   type    7
2970 atoms in group octOdel
group                    octUdel   type    8
2985 atoms in group octUdel
delete_atoms             group     odel
Deleted 30 atoms, new total = 23970
delete_atoms             group     udel
Deleted 15 atoms, new total = 23955
delete_atoms             group     octOdel
Deleted 2970 atoms, new total = 20985
delete_atoms             group     octUdel
Deleted 2985 atoms, new total = 18000

group                    1     union    oxygen    octoxygen
12000 atoms in group 1
group                    2     union    uranium   octuran
6000 atoms in group 2

set                      group     1      type     1
Setting atom values ...
  12000 settings made for type
set                      group     2      type     2
Setting atom values ...
  6000 settings made for type

set                      type      1      charge    -1.1104
Setting atom values ...
  12000 settings made for charge
set                      type      2      charge     2.2208
Setting atom values ...
  6000 settings made for charge

# Minimize the defected configuration at 0K
min_style                cg
fix                      relax   all  box/relax  aniso 0.0 vmax 0.001
minimize                 1.0e-30 1.0e-30 10000 10000
PPPM initialization ...
  G vector (1/distance) = 0.29916851
  grid = 40 240 40
  stencil order = 5
  estimated absolute RMS force accuracy = 0.00015502622
  estimated relative force accuracy = 1.0765975e-05
  3d grid and FFT values/proc = 18225 7600
  update every 1 steps, delay 0 steps, check yes
Step Temp E_pair E_mol TotEng Press Volume
0            0   -234876.63            0   -234876.63    7945.6869    260443.57
Loop time of 3.42634 on 52 procs for 183 steps with 18000 atoms

Minimization stats:
  Stopping criterion = linesearch alpha is zero
  Energy initial, next-to-last, final =
  Force two-norm initial, final = 2720.2903 44.470449
  Force max component initial, final = 1924.9946 31.206047
  Final line search alpha, max atom move = 4.1738634e-12 1.3024978e-10
  Iterations, force evaluations = 183 281

unfix                    relax
reset_timestep           0

# Apply the temperature to the system and relax the configurations
reset_atom_ids
PPPM initialization ...
  G vector (1/distance) = 0.29905291
  grid = 40 240 40
  stencil order = 5
  estimated absolute RMS force accuracy = 0.00015585195
  estimated relative force accuracy = 1.0823319e-05
  3d grid and FFT values/proc = 18225 7600
Finding 1-2 1-3 1-4 neighbors ...
     0 = max # of 1-2 neighbors
     0 = max # of 1-3 neighbors
     0 = max # of 1-4 neighbors
     1 = max # of special neighbors
variable                 latt   equal  (lx/5+ly/60+lz/5)/3
variable                 temp   index  1200
velocity                 all  create  1200  4526826  rot  yes  mom  yes  dist  gaussian
fix                      npt  all  npt  temp  1200  1200  $(100*dt)  aniso  0.0  0.0  $(1000*dt)
fix                      npt  all  npt  temp  1200  1200  0.10000000000000000555  aniso  0.0  0.0  $(1000*dt)
fix                      npt  all  npt  temp  1200  1200  0.10000000000000000555  aniso  0.0  0.0  1
timestep                 0.001
thermo                   10000
thermo_style             custom  step  temp  ke  pe  press v_latt

shell                    mkdir   Frenkel_0.25_relax
dump                     1  all  custom  10000  ./Frenkel_0.25_relax/dump_relax.atom.*  id type q mass x y z
dump_modify              1  element  O Th O Th O Th O Th

run                      300000
PPPM initialization ...
  G vector (1/distance) = 0.29905291
  grid = 40 240 40
  stencil order = 5
  estimated absolute RMS force accuracy = 0.00015585195
  estimated relative force accuracy = 1.0823319e-05
  3d grid and FFT values/proc = 18225 7600
Step Temp KinEng PotEng Press v_latt
0         1200     2791.864   -236179.05    11428.355    5.5926754
Averages over the last 16 of 31 rows, steps 150000 to 300000:
Temp KinEng PotEng Press v_latt
1203.05 2798.97 -233681 370.32 5.64964
Loop time of 2826.79 on 52 procs for 300000 steps with 18000 atoms

shell                    mkdir  thermal_condu
write_data               ./thermal_condu/Frenkel_0.25_relaxed.dat
System init for write_data ...
PPPM initialization ...
  G vector (1/distance) = 0.29845784
  grid = 40 240 40
  stencil order = 5
  estimated absolute RMS force accuracy = 0.00016079893
  estimated relative force accuracy = 1.1166868e-05
  3d grid and FFT values/proc = 18225 7600
