LAMMPS (29 Oct 2020)
#---------------------------------------
#
# This script is used to calculate the thermal conuctivity of UO2 using Muller-Plathe method
# By Ziqiang Wang on 03/18/2022 on Jilin university
#
#---------------------------------------

variable     Nevery    equal   50
variable     T         equal   1200

clear
units          metal
boundary       p p p
atom_style     full

read_data Frenkel_0.005_relaxed.dat
Reading data file ...
  triclinic box = (-0.1816841 -3.5298248 -0.17004313) to (28.075684 338.25782 28.064043) with tilt (0.0000000 0.0000000 0.0000000)
  reading atoms ...
  18000 atoms
  reading velocities ...
  18000 velocities
Finding 1-2 1-3 1-4 neighbors ...
     0 = max # of 1-2 neighbors
     0 = max # of 1-3 neighbors
     0 = max # of 1-4 neighbors
     1 = max # of special neighbors

set           type     1    charge     -1.1104
Setting atom values ...
  11880 settings made for charge
set           type     2    charge      2.2208
Setting atom values ...
  5940 settings made for charge

kspace_style    pppm   1.0e-05
pair_style      hybrid/overlay  coul/long  11.0  eam/alloy
pair_coeff      * * coul/long
pair_coeff      * * eam/alloy CeThUNpPuAmCmO.eam.alloy O Th O Th
newton          on
neighbor        0.3 bin
neigh_modify    delay 0 check yes every 1

#The first equilation
velocity        all create $T 10004 mom yes rot yes dist gaussian
velocity        all create 1200 10004 mom yes rot yes dist gaussian
fix             nvt  all  nvt  temp  $T $T  0.1
fix             nvt  all  nvt  temp  1200 $T  0.1
fix             nvt  all  nvt  temp  1200 1200  0.1

run             100000
PPPM initialization ...
  G vector (1/distance) = 0.29823658
  grid = 40 240 40
  stencil order = 5
  estimated absolute RMS force accuracy = 0.00016300819
  estimated relative force accuracy = 1.1320292e-05
  3d grid and FFT values/proc = 15000 7600
  update every 1 steps, delay 0 steps, check yes
Step Temp E_pair E_mol TotEng Press
0         1200   -233488.58            0   -230696.72    550.37342
Loop time of 693.56 on 52 procs for 100000 steps with 18000 atoms

unfix           nvt
reset_timestep  0

# the second run
fix             1 all nve

group           oxygen type 1
11880 atoms in group oxygen
fix             2 oxygen thermal/conductivity 50 y 20

compute         ke all ke/atom
variable        temp atom c_ke/1.5
compute         layers all chunk/atom bin/1d y lower 0.05 units reduced
fix             3      all ave/chunk  2000 50 100000 layers v_temp file profile_1200K.mp

variable        Tdiff    equal     f_3[11][3]-f_3[1][3]
variable        deltaT   equal     v_Tdiff*1.5/0.0001292

timestep        0.001
thermo_style    custom step f_2 temp v_Tdiff v_deltaT
thermo          100000

run             1000000
PPPM initialization ...
  G vector (1/distance) = 0.29823658
  grid = 40 240 40
  stencil order = 5
  estimated absolute RMS force accuracy = 0.00016300819
  estimated relative force accuracy = 1.1320292e-05
  3d grid and FFT values/proc = 15000 7600
Step f_2 Temp v_Tdiff v_deltaT
0            0    1201.2765            0            0
Averages over the last 6 of 11 rows, steps 500000 to 1000000:
f_2 Temp v_Tdiff v_deltaT
9101.24 1204.24 0.059899 695.422
Loop time of 6983.8 on 52 procs for 1000000 steps with 18000 atoms
