LAMMPS (29 Oct 2020)
#-------------------------
#
#This script is used to create different concentrations of vacancies in thorium dioxide
#By Ziqiang Wang on 07/03/2023
#
#-------------------------

clear
units                        metal
dimension                        3
boundary                     p p p
atom_style                   full
atom_modify                  map array

read_data                   perfect_relaxed.dat
Reading data file ...
  orthogonal box = (-0.27717828 -3.4472206 -0.27717828) to (27.617178 331.52722 27.617178)
  reading atoms ...
  18000 atoms
  reading velocities ...
  18000 velocities
Finding 1-2 1-3 1-4 neighbors ...
     0 = max # of 1-2 neighbors
     0 = max # of 1-3 neighbors
     0 = max # of 1-4 neighbors
     1 = max # of special neighbors

set                         type    1      charge   -1.1104
Setting atom values ...
  12000 settings made for charge
set                         type    2      charge    2.2208
Setting atom values ...
  6000 settings made for charge

kspace_style                pppm     1.0e-05
pair_style                  hybrid/overlay    coul/long   11.0  eam/alloy
pair_coeff                  * * coul/long
pair_coeff                  * * eam/alloy CeThUNpPuAmCmO.eam.alloy O Th
neighbor                    2.0  bin
neigh_modify                every  1  delay  0  check  yes

# randomly create vacancies in the relaxed perfect crystal
variable         vac_ratio       equal    0.005
region           sphere_1    sphere     13.67 80.2964 13.67 7.0  units box
group            sphere_1     region  sphere_1
99 atoms in group sphere_1
group            oxygen_1     id 8011 8012 8189 8190
4 atoms in group oxygen_1
group            thorium_1    id 8065 4466 8185 4526 4527 11665 11785 11726 11727 8187 11738 8067 11666
13 atoms in group thorium_1
group            1          subtract sphere_1 thorium_1
86 atoms in group 1
group            2          union    1 oxygen_1
90 atoms in group 2
delete_atoms     group        2
Deleted 90 atoms, new total = 17910

# fully relaxing the defect configuration at 0K
fix                box_relax  all  box/relax aniso 0.0 vmax 0.001
min_style          cg
minimize           1.0e-30 1.0e-30 10000 10000
PPPM initialization ...
  G vector (1/distance) = 0.299142
  grid = 40 240 40
  stencil order = 5
  estimated absolute RMS force accuracy = 0.00015485404
  estimated relative force accuracy = 1.0754018e-05
  3d grid and FFT values/proc = 18225 7600
  update every 1 steps, delay 0 steps, check yes
Step Temp E_pair E_mol TotEng Press Volume
0            0    -235434.9            0    -235434.9   -300.03297    260641.98
Loop time of 0.964797 on 52 procs for 24 steps with 17910 atoms

Minimization stats:
  Stopping criterion = linesearch alpha is zero
  Energy initial, next-to-last, final =
  Force two-norm initial, final = 237.20468 79.502552
  Force max component initial, final = 151.99850 34.417398
  Final line search alpha, max atom move = 1.3508494e-12 4.6492720e-11
  Iterations, force evaluations = 24 81

unfix              box_relax

# apply the temperature into the system and relaxing at the temperature of interest
reset_atom_ids
PPPM initialization ...
  G vector (1/distance) = 0.29914441
  grid = 40 240 40
  stencil order = 5
  estimated absolute RMS force accuracy = 0.00015481505
  estimated relative force accuracy = 1.075131e-05
  3d grid and FFT values/proc = 18225 7600
Finding 1-2 1-3 1-4 neighbors ...
     0 = max # of 1-2 neighbors
     0 = max # of 1-3 neighbors
     0 = max # of 1-4 neighbors
     1 = max # of special neighbors
variable                    temp      equal    600
velocity                    all  create   600  4542  dist  gaussian  rot  yes  mom  yes
fix                         npt  all  npt  temp  600  600  $(100*dt) aniso  0.0  0.0  $(1000*dt)
fix                         npt  all  npt  temp  600  600  0.10000000000000000555 aniso  0.0  0.0  $(1000*dt)
fix                         npt  all  npt  temp  600  600  0.10000000000000000555 aniso  0.0  0.0  1

thermo                      10000
thermo_style                custom   step dt time atoms temp pe ke press vol

shell                       mkdir vac_0.005_600K
dump                        1  all  custom  10000  ./vac_0.005_600K/dump_relax.atom.* id type q x y z
dump_modify                 1  element  O  Th

run                         100000
PPPM initialization ...
  G vector (1/distance) = 0.29914441
  grid = 40 240 40
  stencil order = 5
  estimated absolute RMS force accuracy = 0.00015481505
  estimated relative force accuracy = 1.075131e-05
  3d grid and FFT values/proc = 18225 7600
Step Dt Time Atoms Temp PotEng KinEng Press Volume
24        0.001            0    17910          600   -235516.66     1388.952    5484.4399    260665.08
Averages over the last 6 of 12 rows, steps 60000 to 100024:
Dt Atoms Temp PotEng KinEng Press Volume
0.001 17910 599.21 -234245 1387.12 -10.2872 264848
Loop time of 878.424 on 52 procs for 100000 steps with 17910 atoms

shell                       mkdir thermal_condu
write_data                  thermal_condu/vac_0.005_relaxed.dat
System init for write_data ...
PPPM initialization ...
  G vector (1/distance) = 0.29885966
  grid = 40 240 40
  stencil order = 5
  estimated absolute RMS force accuracy = 0.00015707368
  estimated relative force accuracy = 1.0908164e-05
  3d grid and FFT values/proc = 18225 7600
